omf/scratch/OpenDssDemo/example/Lines_ckt5.dss



New Line.THR201_connector              bus1=_THR_SUB_1_LSB                 bus2=THR201                         length=0.001       r1=0.001                                                  r0=0.001 x1=0.01       x0=0.01  c1=0 c0=0 units=km enabled=False phases=3 
New Line.MDV202_connector              bus1=_MDV_SUB_2_LSB                 bus2=MDV202                         length=0.001       r1=0.001                                                  r0=0.001 x1=0.01       x0=0.01  c1=0 c0=0 units=km enabled=False phases=3 
New Line.MDV201_connector              bus1=_MDV_SUB_1_LSB                 bus2=MDV201                         length=0.001       r1=0.001                                                  r0=0.001 x1=0.01       x0=0.01  c1=0 c0=0 units=km enabled=True  phases=3 
New Line.PIT201_connector              bus1=_PIT_SUB_1_LSB                 bus2=PIT201                         length=0.001       r1=0.001                                                  r0=0.001 x1=0.01       x0=0.01  c1=0 c0=0 units=km enabled=False phases=3 
New Line.MDV201_HN_1_275_A94744        bus1=94743.1                        bus2=94744.1                        length=0.078943197 geometry=1PH-AL_#2_7STRNONENONEACSR_1/0_6/1                               units=km enabled=True  phases=1 
New Line.MDV201_HN_2_466_C62235        bus1=62244.3                        bus2=62235.3                        length=0.042671999 geometry=1PH-NONENONEAL_1/0_7STRACSR_1/0_6/1                              units=km enabled=True  phases=1 
New Line.MDV201_DA_8_780_A1144234      bus1=1144235.1                      bus2=1144234.1                      length=0.1161288   geometry=1PH-AL_#2_7STRNONENONEACSR_1/0_6/1                               units=km enabled=True  phases=1 
New Line.MDV201_1160486ELB-1_sw        bus1=39754.2                        bus2=MDV201_1160486ELB_INT.2        length=1           switch=y                                                  units=km enabled=True  phases=1 
New Line.MDV201_1160486ELB             bus1=MDV201_1160486ELB_INT.2        bus2=1160486.2                      length=0.001524    linecode=BUSBAR                                                  units=km enabled=True  phases=1 
New Line.MDV201_HN_2P009_B1160473      bus1=1160476.2                      bus2=1160473.2                      length=0.060959998 linecode=UG_1/0AL                                                  units=km enabled=True  phases=1 
New Line.MDV201_HN_2_088_ABC8164       bus1=8163                           bus2=8164                           length=0.084124797 geometry=3PH_HORIZ_LG_1C-AL_4/0_7STRAL_4/0_7STRAL_4/0_7STRACSR_1/0_6/1    units=km enabled=True  phases=3 
New Line.MDV201_HN_2_319_B39610        bus1=103730.2                       bus2=39610.2                        length=0.019202399 geometry=1PH-NONEAL_#2_7STRNONEACSR_1/0_6/1                               units=km enabled=True  phases=1 
New Line.MDV201_HN_2_417_A842          bus1=835.1                          bus2=842.1                          length=0.048767998 geometry=1PH-AL_#2_7STRNONENONEACSR_1/0_6/1                               units=km enabled=True  phases=1 
New Line.MDV201_OSW_67888_sw           bus1=107782                         bus2=MDV201_OSW_67888_INT           length=1           switch=y                                                  units=km enabled=False phases=3 
New Line.MDV201_OSW_67888              bus1=MDV201_OSW_67888_INT           bus2=67888                          length=0.001524    geometry=3PH_HORIZ_LG_1C-BUSBARBUSBARBUSBARBUSBAR                         units=km enabled=False phases=3 
New Line.MDV201_HN_2_941_B39760        bus1=39775.2                        bus2=39760.2                        length=0.060350398 geometry=1PH-NONEAL_#2_7STRNONEACSR_1/0_6/1                               units=km enabled=True  phases=1 
New Line.MDV201_1160480ELB-1_sw        bus1=15004.2                        bus2=MDV201_1160480ELB_INT.2        length=1           switch=y                                                  units=km enabled=True  phases=1 
New Line.MDV201_1160480ELB             bus1=MDV201_1160480ELB_INT.2        bus2=1160480.2                      length=0.001524    linecode=BUSBAR                                                  units=km enabled=True  phases=1 
New Line.C_1P034_sw                    bus1=1160492.1                      bus2=MDV201_8088ELB_INT.1           length=1           switch=y                                                  units=km enabled=True  phases=1 
New Line.MDV201_8088ELB                bus1=MDV201_8088ELB_INT.1           bus2=8088.1                         length=0.001524    linecode=BUSBAR                                                  units=km enabled=True  phases=1 
New Line.MDV201_HN_2_499_ABC834        bus1=829                            bus2=834                            length=0.088391997 geometry=3PH_HORIZ_LG_1C-CU_#2_7STRCU_#2_7STRCU_#2_7STRACSR_1/0_6/1       units=km enabled=True  phases=3 
New Line.MDV201_1160478ELB-1_sw        bus1=15005.2                        bus2=MDV201_1160478ELB_INT.2        length=1           switch=y                                                  units=km enabled=True  phases=1 
New Line.MDV201_1160478ELB             bus1=MDV201_1160478ELB_INT.2        bus2=1160478.2                      length=0.001524    linecode=BUSBAR                                                  units=km enabled=True  phases=1 
New Line.MDV201_HN_2_217_ABC8160       bus1=44582                          bus2=8160                           length=0.025907999 geometry=3PH_HORIZ_LG_1C-AL_4/0_7STRAL_4/0_7STRAL_4/0_7STRACSR_1/0_6/1    units=km enabled=True  phases=3 
New Line.MDV201_HN_2_942_C89791        bus1=89783.3                        bus2=89791.3                        length=0.052120798 geometry=1PH-NONENONEAL_#2_7STRACSR_1/0_6/1                               units=km enabled=True  phases=1 
New Line.MDV201_99422FUSE              bus1=6584.1                         bus2=99422.1                        length=0.001524    geometry=1PH-BUSBARNONENONEBUSBAR                                         units=km enabled=True  phases=1 
New Line.MDV201_HN_2_140_ABC8124       bus1=8113                           bus2=8124                           length=0.064312798 geometry=3PH_HORIZ_LG_1C-CU_#2_7STRCU_#2_7STRCU_#2_7STRACSR_1/0_6/1       units=km enabled=True  phases=3 
New Line.MDV201_HN_2_818_ABC63707      bus1=14880                          bus2=63707                          length=0.058826398 geometry=3PH_HORIZ_LG_1C-AL_4/0_7STRAL_4/0_7STRAL_4/0_7STRACSR_1/0_6/1    units=km enabled=True  phases=3 
New Line.MDV201_DA_8_731_C74450        bus1=74449.3                        bus2=74450.3                        length=0.047243998 geometry=1PH-NONENONEAL_#2_7STRACSR_1/0_6/1                               units=km enabled=True  phases=1 
New Line.MDV201_100494FUSE             bus1=14989.2                        bus2=100494.2                       length=0.001524    geometry=1PH-NONEBUSBARNONEBUSBAR                                         units=km enabled=True  phases=1 
New Line.MDV201_107110FUSE             bus1=63683.1.3                      bus2=107110.1.3                     length=0.001524    geometry=2PH_HORIZ_LG_1C-BUSBARNONEBUSBARBUSBAR                           units=km enabled=True  phases=2 
New Line.MDV201_HN_2_477_C8121         bus1=1144242.3                      bus2=8121.3                         length=0.049682398 geometry=1PH-NONENONEAL_#2_7STRACSR_1/0_6/1                               units=km enabled=True  phases=1 
New Line.MDV201_HN_2_876_C63671        bus1=63668.3                        bus2=63671.3                        length=0.046939198 geometry=1PH-NONENONEAL_1/0_7STRACSR_1/0_6/1                              units=km enabled=True  phases=1 
New Line.MDV201_HN_2_671_C89781        bus1=89784.3                        bus2=89781.3                        length=0.052730398 geometry=1PH-NONENONEAL_1/0_7STRACSR_1/0_6/1                              units=km enabled=True  phases=1 
New Line.MDV201_DA_8_930_A39751        bus1=39734.1                        bus2=39751.1                        length=0.068579998 geometry=1PH-AL_1/0_7STRNONENONEACSR_1/0_6/1                              units=km enabled=True  phases=1 
New Line.MDV201_HN_2_394_ABC63658      bus1=63657                          bus2=63658                          length=0.038099999 geometry=3PH_VERT_1C-AL_556_19STRAL_556_19STRAL_556_19STRACSR_1/0_6/1     units=km enabled=True  phases=3 
New Line.MDV201_DA_8_687_B74448        bus1=74445.2                        bus2=74448.2                        length=0.044805599 geometry=1PH-NONEAL_#2_7STRNONEACSR_1/0_6/1                               units=km enabled=True  phases=1 
New Line.MDV201_1012643FUSE            bus1=1012641.3                      bus2=1012643.3                      length=0.001524    geometry=1PH-NONENONEBUSBARBUSBAR                                         units=km enabled=True  phases=1 
New Line.MDV201_HN_1_238_A39569        bus1=39570.1                        bus2=39569.1                        length=0.065227198 geometry=1PH-AL_#2_7STRNONENONEACSR_1/0_6/1                               units=km enabled=True  phases=1 
New Line.MDV201_14869FUSE              bus1=14858.1                        bus2=14869.1                        length=0.001524    geometry=1PH-BUSBARNONENONEBUSBAR                                         units=km enabled=True  phases=1 
New Line.MDV201_HN_1_156_C89790        bus1=89796.3                        bus2=89790.3                        length=0.091439997 geometry=1PH-NONENONEAL_1/0_7STRACSR_1/0_6/1                              units=km enabled=True  phases=1 
New Line.MDV201_HN_2_318_C28272        bus1=28271.3                        bus2=28272.3                        length=0.070103998 geometry=1PH-NONENONEAL_#2_7STRACSR_1/0_6/1                               units=km enabled=True  phases=1 
New Line.MDV201_C_1_140_ABC69477       bus1=69478                          bus2=69477                          length=0.1078992   geometry=3PH_VERT_1C-AL_556_19STRAL_556_19STRAL_556_19STRACSR_1/0_6/1     units=km enabled=True  phases=3 
New Line.MDV201_HN_2_948_C8176         bus1=8175.3                         bus2=8176.3                         length=0.046634399 geometry=1PH-NONENONEAL_1/0_7STRACSR_1/0_6/1                              units=km enabled=True  phases=1 
New Line.MDV201_1144230FUSE            bus1=8184.1                         bus2=1144230.1                      length=0.001524    geometry=1PH-BUSBARNONENONEBUSBAR                                         units=km enabled=True  phases=1 
New Line.MDV201_HN_2_105_ABC39582      bus1=39595                          bus2=39582                          length=0.082600797 geometry=3PH_HORIZ_LG_1C-AL_1/0_7STRAL_1/0_7STRAL_1/0_7STRACSR_1/0_6/1    units=km enabled=True  phases=3 
New Line.MDV201_DA_8_691_B46386        bus1=46385.2                        bus2=46386.2                        length=0.042671999 geometry=1PH-NONEAL_#2_7STRNONEACSR_1/0_6/1                               units=km enabled=True  phases=1 
New Line.MDV201_HN_2_457_C62244        bus1=106884.3                       bus2=62244.3                        length=0.030784799 geometry=1PH-NONENONEAL_1/0_7STRACSR_1/0_6/1                              units=km enabled=True  phases=1 
New Line.C_1P038_sw                    bus1=1160493.1                      bus2=MDV201_8075ELB_INT.1           length=1           switch=y                                                  units=km enabled=True  phases=1 
New Line.MDV201_8075ELB                bus1=MDV201_8075ELB_INT.1           bus2=8075.1                         length=0.001524    linecode=BUSBAR                                                  units=km enabled=True  phases=1 
New Line.C_1P032_sw                    bus1=69460.1                        bus2=MDV201_107997ELB_INT.1         length=1           switch=y                                                  units=km enabled=True  phases=1 
New Line.MDV201_107997ELB              bus1=MDV201_107997ELB_INT.1         bus2=107997.1                       length=0.001524    linecode=BUSBAR                                                  units=km enabled=True  phases=1 
New Line.MDV201_HN_2_949_C8180         bus1=8176.3                         bus2=8180.3                         length=0.021031199 geometry=1PH-NONENONEAL_1/0_7STRACSR_1/0_6/1                              units=km enabled=True  phases=1 
New Line.MDV201_C_1P024_A8100          bus1=1160461.1                      bus2=8100.1                         length=0.1237488   linecode=UG_1/0AL                                                  units=km enabled=True  phases=1 
New Line.MDV201_HN_2_166_C33824        bus1=39776.3                        bus2=33824.3                        length=0.066751198 geometry=1PH-NONENONECU_#6_1STRACSR_1/0_6/1                               units=km enabled=True  phases=1 
New Line.MDV201_HN_2_827_A14873        bus1=1140227.1                      bus2=14873.1                        length=0.040843199 geometry=1PH-AL_#2_7STRNONENONEACSR_1/0_6/1                               units=km enabled=True  phases=1 
New Line.HN_2P017_sw                   bus1=1160488.2                      bus2=MDV201_62249ELB_INT.2          length=1           switch=y                                                  units=km enabled=True  phases=1 
New Line.MDV201_62249ELB               bus1=MDV201_62249ELB_INT.2          bus2=62249.2                        length=0.001524    linecode=BUSBAR                                                  units=km enabled=True  phases=1 
New Line.MDV201_HN_2_397_B63634        bus1=107106.2                       bus2=63634.2                        length=0.052120798 geometry=1PH-NONEAL_#2_7STRNONEACSR_1/0_6/1                               units=km enabled=True  phases=1 
New Line.MDV201_C_1P037_A1160467       bus1=1160494.1                      bus2=1160467.1                      length=0.041452799 linecode=UG_1/0AL                                                  units=km enabled=True  phases=1 
New Line.MDV201_HN_2_280_A8185         bus1=1144230.1                      bus2=8185.1                         length=0.042367199 geometry=1PH-CU_#6_1STRNONENONEACSR_1/0_6/1                               units=km enabled=True  phases=1 
New Line.MDV201_HN_2_794_ABC791        bus1=796                            bus2=791                            length=0.059740798 geometry=3PH_HORIZ_LG_1C-AL_556_19STRAL_556_19STRAL_556_19STRACSR_1/0_6/1 units=km enabled=True  phases=3 
New Line.MDV201_HN_2_677_C62303        bus1=62306.3                        bus2=62303.3                        length=0.059740798 geometry=1PH-NONENONEAL_1/0_7STRACSR_1/0_6/1                              units=km enabled=True  phases=1 
New Line.MDV201_100478FUSE             bus1=14839.3                        bus2=100478.3                       length=0.001524    geometry=1PH-NONENONEBUSBARBUSBAR                                         units=km enabled=True  phases=1 
New Line.MDV201_HN_2_115_ABC58446      bus1=58441                          bus2=58446                          length=0.043586399 geometry=3PH_HORIZ_LG_1C-AL_1/0_7STRAL_1/0_7STRAL_1/0_7STRACSR_1/0_6/1    units=km enabled=True  phases=3 
New Line.MDV201_HN_2_895_B52515        bus1=112112.2                       bus2=52515.2                        length=0.024383999 geometry=1PH-NONEAL_#2_7STRNONEACSR_1/0_6/1                               units=km enabled=True  phases=1 
New Line.MDV201_98795FUSE              bus1=846                            bus2=98795                          length=0.001524    geometry=3PH_HORIZ_LG_1C-BUSBARBUSBARBUSBARBUSBAR                         units=km enabled=True  phases=3 
New Line.MDV201_HN_2_246_B39602        bus1=39623.2                        bus2=39602.2                        length=0.067970398 geometry=1PH-NONEAL_1/0_7STRNONEACSR_1/0_6/1                              units=km enabled=True  phases=1 
New Line.MDV201_DA_8_149_ABC56778      bus1=56777                          bus2=56778                          length=0.102108    geometry=3PH_HORIZ_LG_1C-AL_4/0_7STRAL_4/0_7STRAL_4/0_7STRACSR_1/0_6/1    units=km enabled=True  phases=3 
New Line.MDV201_HN_2_083_ABC62239      bus1=44586                          bus2=62239                          length=0.031394399 geometry=3PH_HORIZ_LG_1C-AL_4/0_7STRAL_4/0_7STRAL_4/0_7STRACSR_1/0_6/1    units=km enabled=True  phases=3 
New Line.MDV201_DA_8_145_ABC46393      bus1=46394                          bus2=46393                          length=0.074066398 geometry=3PH_HORIZ_LG_1C-AL_4/0_7STRAL_4/0_7STRAL_4/0_7STRACSR_1/0_6/1    units=km enabled=True  phases=3 
New Line.MDV201_HN_2_729_B28246        bus1=1144254.2                      bus2=28246.2                        length=0.026212799 geometry=1PH-NONEAL_#2_7STRNONEACSR_1/0_6/1                               units=km enabled=True  phases=1 
New Line.MDV201_HN_2_954_B39771        bus1=14996.2                        bus2=39771.2                        length=0.049987198 geometry=1PH-NONEAL_#2_7STRNONEACSR_1/0_6/1                               units=km enabled=True  phases=1 
New Line.MDV201_108776FUSE             bus1=74432.1                        bus2=108776.1                       length=0.001524    geometry=1PH-BUSBARNONENONEBUSBAR                                         units=km enabled=True  phases=1 
New Line.HN_2P028_sw                   bus1=1160489.1                      bus2=MDV201_795ELB_INT.1            length=1           switch=y                                                  units=km enabled=True  phases=1 
New Line.MDV201_795ELB                 bus1=MDV201_795ELB_INT.1            bus2=795.1                          length=0.001524    linecode=BUSBAR                                                  units=km enabled=True  phases=1 
New Line.MDV201_1140227FUSE            bus1=14879.1                        bus2=1140227.1                      length=0.001524    geometry=1PH-BUSBARNONENONEBUSBAR                                         units=km enabled=True  phases=1 
New Line.MDV201_HN_2_488_C8103         bus1=8099.3                         bus2=8103.3                         length=0.038099999 geometry=1PH-NONENONEAL_#2_7STRACSR_1/0_6/1                               units=km enabled=True  phases=1 
New Line.MDV201_DA_8_917_A56768        bus1=1000983.1                      bus2=56768.1                        length=0.030784799 geometry=1PH-AL_1/0_7STRNONENONEACSR_1/0_6/1                              units=km enabled=True  phases=1 
New Line.MDV201_HN_2_029_ABC62262      bus1=62265                          bus2=62262                          length=0.060959998 geometry=3PH_HORIZ_LG_1C-AL_4/0_7STRAL_4/0_7STRAL_4/0_7STRACSR_1/0_6/1    units=km enabled=True  phases=3 
New Line.MDV201_HN_2_955_B39752        bus1=39771.2                        bus2=39752.2                        length=0.050596798 geometry=1PH-NONEAL_#2_7STRNONEACSR_1/0_6/1                               units=km enabled=True  phases=1 
New Line.MDV201_DA_8_215_B1017348      bus1=1017350.2                      bus2=1017348.2                      length=0.1115568   geometry=1PH-NONEACSR_1/0_6/1NONEACSR_1/0_6/1                             units=km enabled=True  phases=1 
New Line.MDV201_DA_8_678_A56764        bus1=56760.1                        bus2=56764.1                        length=0.057607198 geometry=1PH-AL_#2_7STRNONENONEACSR_1/0_6/1                               units=km enabled=True  phases=1 
New Line.MDV201_HN_2_834_B39617        bus1=39620.2                        bus2=39617.2                        length=0.056692798 geometry=1PH-NONEAL_1/0_7STRNONEACSR_1/0_6/1                              units=km enabled=True  phases=1 
New Line.MDV201_HN_2_906_A39580        bus1=39589.1                        bus2=39580.1                        length=0.019507199 geometry=1PH-AL_#2_7STRNONENONEACSR_1/0_6/1                               units=km enabled=True  phases=1 
New Line.MDV201_DA_8_734_C74440        bus1=74446.3                        bus2=74440.3                        length=0.035966399 geometry=1PH-NONENONEAL_#2_7STRACSR_1/0_6/1                               units=km enabled=True  phases=1 
New Line.MDV201_DA_8_157_ABC58429      bus1=58430                          bus2=58429                          length=0.079552797 geometry=3PH_VERT_1C-AL_336_19STRAL_336_19STRAL_336_19STRACSR_1/0_6/1     units=km enabled=True  phases=3 
New Line.MDV201_HN_2_605_A21655        bus1=28213.1                        bus2=21655.1                        length=0.069189598 geometry=1PH-AL_#2_7STRNONENONEACSR_1/0_6/1                               units=km enabled=True  phases=1 
New Line.MDV201_HN_2_636_AC28249       bus1=63666.1.3                      bus2=28249.1.3                      length=0.063093598 geometry=2PH_VERT_1C-AL_1/0_7STRNONEAL_1/0_7STRACSR_1/0_6/1               units=km enabled=True  phases=2 
New Line.MDV201_HN_2_705_ABC52524      bus1=105409                         bus2=52524                          length=0.041452799 geometry=3PH_VERT_1C-AL_4/0_7STRAL_4/0_7STRAL_4/0_7STRACSR_1/0_6/1        units=km enabled=True  phases=3 
New Line.MDV201_DA_8_928_A39733        bus1=74424.1                        bus2=39733.1                        length=0.073456798 geometry=1PH-AL_1/0_7STRNONENONEACSR_1/0_6/1                              units=km enabled=True  phases=1 
New Line.MDV201_HN_2_383_ABC8113       bus1=8111                           bus2=8113                           length=0.064312798 geometry=3PH_HORIZ_LG_1C-CU_#2_7STRCU_#2_7STRCU_#2_7STRACSR_1/0_6/1       units=km enabled=True  phases=3 
New Line.MDV201_HN_2_803_B837          bus1=836.2                          bus2=837.2                          length=0.054559198 geometry=1PH-NONEAL_1/0_7STRNONEACSR_1/0_6/1                              units=km enabled=True  phases=1 
New Line.SW-HN_2_793_sw                bus1=1023346                        bus2=MDV201_796USD_INT              length=1           switch=y                                                  units=km enabled=True  phases=3 
New Line.MDV201_796USD                 bus1=MDV201_796USD_INT              bus2=796                            length=0.001524    geometry=3PH_HORIZ_LG_1C-BUSBARBUSBARBUSBARBUSBAR                         units=km enabled=True  phases=3 
New Line.MDV201_HN_1_332_C28263        bus1=28262.3                        bus2=28263.3                        length=0.042671999 geometry=1PH-NONENONEAL_#2_7STRACSR_1/0_6/1                               units=km enabled=True  phases=1 
New Line.MDV201_HN_2_890_B52521        bus1=52519.2                        bus2=52521.2                        length=0.070713598 geometry=1PH-NONEAL_#2_7STRNONEACSR_1/0_6/1                               units=km enabled=True  phases=1 
New Line.MDV201_HN_2_377_ABC28196      bus1=28199                          bus2=28196                          length=0.066141598 geometry=3PH_HORIZ_LG_1C-CU_#2_7STRCU_#2_7STRCU_#2_7STRACSR_1/0_6/1       units=km enabled=True  phases=3 
New Line.MDV201_HN_1_331_C28262        bus1=28264.3                        bus2=28262.3                        length=0.064007998 geometry=1PH-NONENONEAL_#2_7STRACSR_1/0_6/1                               units=km enabled=True  phases=1 
New Line.MDV201_HN_2_628_C52531        bus1=28229.3                        bus2=52531.3                        length=0.059131198 geometry=1PH-NONENONEAL_1/0_7STRACSR_1/0_6/1                              units=km enabled=True  phases=1 
New Line.MDV201_HN_2_964_A14870        bus1=14869.1                        bus2=14870.1                        length=0.080467197 geometry=1PH-AL_#2_7STRNONENONEACSR_1/0_6/1                               units=km enabled=True  phases=1 
New Line.MDV201_DA_8_200_C46399        bus1=46398.3                        bus2=46399.3                        length=0.032613599 geometry=1PH-NONENONECU_#6_1STRACSR_1/0_6/1                               units=km enabled=True  phases=1 
New Line.MDV201_106895FUSE             bus1=62264.2                        bus2=106895.2                       length=0.001524    geometry=1PH-NONEBUSBARNONEBUSBAR                                         units=km enabled=True  phases=1 
New Line.HN_2P054_sw                   bus1=1163442.3                      bus2=MDV201_1163443ELB_INT.3        length=1           switch=y                                                  units=km enabled=True  phases=1 
New Line.MDV201_1163443ELB             bus1=MDV201_1163443ELB_INT.3        bus2=1163443.3                      length=0.001524    linecode=BUSBAR                                                  units=km enabled=True  phases=1 
New Line.MDV201_DA_8_142_ABC6584       bus1=99420                          bus2=6584                           length=0.068579998 geometry=3PH_HORIZ_LG_1C-AL_4/0_7STRAL_4/0_7STRAL_4/0_7STRACSR_1/0_6/1    units=km enabled=True  phases=3 
New Line.MDV201_1144249FUSE            bus1=14828.3                        bus2=1144249.3                      length=0.001524    geometry=1PH-NONENONEBUSBARBUSBAR                                         units=km enabled=True  phases=1 
New Line.MDV201_HN_2_965_A63726        bus1=14870.1                        bus2=63726.1                        length=0.068884798 geometry=1PH-AL_#2_7STRNONENONEACSR_1/0_6/1                               units=km enabled=True  phases=1 
New Line.MDV201_C_1_410_A8131          bus1=8134.1                         bus2=8131.1                         length=0.054559198 geometry=1PH-AL_#2_7STRNONENONEACSR_1/0_6/1                               units=km enabled=True  phases=1 
New Line.MDV201_HN_2_463_C62234        bus1=62232.3                        bus2=62234.3                        length=0.049377598 geometry=1PH-NONENONEAL_1/0_7STRACSR_1/0_6/1                              units=km enabled=True  phases=1 
New Line.MDV201_HN_2_133_ABC8083       bus1=841                            bus2=8083                           length=0.039014399 geometry=3PH_HORIZ_LG_1C-CU_#2_7STRCU_#2_7STRCU_#2_7STRACSR_1/0_6/1       units=km enabled=True  phases=3 
New Line.MDV201_HN_2_840_B52518        bus1=39579.2                        bus2=52518.2                        length=0.060655198 geometry=1PH-NONEAL_1/0_7STRNONEACSR_1/0_6/1                              units=km enabled=True  phases=1 
New Line.MDV201_HN_2_808_ABC783        bus1=782                            bus2=783                            length=0.057302398 geometry=3PH_VERT_1C-AL_556_19STRAL_556_19STRAL_556_19STRACSR_1/0_6/1     units=km enabled=True  phases=3 
New Line.MDV201_HN_2_608_A8133         bus1=8132.1                         bus2=8133.1                         length=0.038404799 geometry=1PH-AL_#2_7STRNONENONEACSR_1/0_6/1                               units=km enabled=True  phases=1 
New Line.ELB-C_1P032_sw                bus1=107997.1                       bus2=MDV201_C_1P032_1160490_INT.1   length=1           switch=y                                                  units=km enabled=False phases=1 
New Line.MDV201_C_1P032_1160490        bus1=MDV201_C_1P032_1160490_INT.1   bus2=1160490.1                      length=0.001524    linecode=BUSBAR                                                  units=km enabled=True  phases=1 
New Line.MDV201_HN_2_077_C28274        bus1=100477.3                       bus2=28274.3                        length=0.076199998 geometry=1PH-NONENONECU_#6_1STRACSR_1/0_6/1                               units=km enabled=True  phases=1 
New Line.MDV201_HN_2_711_A63676        bus1=63677.1                        bus2=63676.1                        length=0.035356799 geometry=1PH-AL_#2_7STRNONENONEACSR_1/0_6/1                               units=km enabled=True  phases=1 
New Line.MDV201_HN_2_923_C28266        bus1=102184.3                       bus2=28266.3                        length=0.028041599 geometry=1PH-NONENONEAL_#2_7STRACSR_1/0_6/1                               units=km enabled=True  phases=1 
New Line.MDV201_HN_21041_C39773        bus1=39772.3                        bus2=39773.3                        length=0.088391997 geometry=1PH-NONENONEAL_1/0_7STRACSR_1/0_6/1                              units=km enabled=True  phases=1 
New Line.MDV201_HN_2_644_A28238        bus1=28241.1                        bus2=28238.1                        length=0.054863998 geometry=1PH-AL_1/0_7STRNONENONEACSR_1/0_6/1                              units=km enabled=True  phases=1 
New Line.MDV201_1144260FUSE            bus1=848.2                          bus2=1144260.2                      length=0.001524    geometry=1PH-NONEBUSBARNONEBUSBAR                                         units=km enabled=True  phases=1 
New Line.MDV201_HN_2_539_C8098         bus1=8095.3                         bus2=8098.3                         length=0.041147999 geometry=1PH-NONENONEAL_#2_7STRACSR_1/0_6/1                               units=km enabled=True  phases=1 
New Line.MDV201_HN_2_800_B850          bus1=849.2                          bus2=850.2                          length=0.045110399 geometry=1PH-NONEAL_1/0_7STRNONEACSR_1/0_6/1                              units=km enabled=True  phases=1 
New Line.MDV201_HN_2_092_ABC63711      bus1=63714                          bus2=63711                          length=0.105156    geometry=3PH_HORIZ_LG_1C-AL_4/0_7STRAL_4/0_7STRAL_4/0_7STRACSR_1/0_6/1    units=km enabled=True  phases=3 
New Line.MDV201_HN_2P014_B1160485      bus1=1160484.2                      bus2=1160485.2                      length=0.042671999 linecode=UG_1/0AL                                                  units=km enabled=True  phases=1 
New Line.MDV201_C_1_412_A8128          bus1=8127.1                         bus2=8128.1                         length=0.041452799 geometry=1PH-AL_#2_7STRNONENONEACSR_1/0_6/1                               units=km enabled=True  phases=1 
New Line.MDV201_HN_2_533_A8117         bus1=8119.1                         bus2=8117.1                         length=0.048767998 geometry=1PH-AL_#2_7STRNONENONEACSR_1/0_6/1                               units=km enabled=True  phases=1 
New Line.MDV201_HN_2_970_A63710        bus1=63709.1                        bus2=63710.1                        length=0.045719999 geometry=1PH-AL_#2_7STRNONENONEACSR_1/0_6/1                               units=km enabled=True  phases=1 
New Line.MDV201_C_1_400_A21653         bus1=21654.1                        bus2=21653.1                        length=0.056083198 geometry=1PH-AL_#2_7STRNONENONEACSR_1/0_6/1                               units=km enabled=True  phases=1 
New Line.MDV201_HN_2_124_C63703        bus1=63708.3                        bus2=63703.3                        length=0.1161288   geometry=1PH-NONENONECU_#6_1STRACSR_1/0_6/1                               units=km enabled=True  phases=1 
New Line.MDV201_106254FUSE             bus1=58411.1                        bus2=106254.1                       length=0.001524    geometry=1PH-BUSBARNONENONEBUSBAR                                         units=km enabled=True  phases=1 
New Line.MDV201_HN_1_380_C1012407      bus1=1012405.3                      bus2=1012407.3                      length=0.041757599 geometry=1PH-NONENONEAL_#2_7STRACSR_1/0_6/1                               units=km enabled=True  phases=1 
New Line.MDV201_HN_2_381_ABC1010731    bus1=810                            bus2=1010731                        length=0.067360798 geometry=3PH_VERT_1C-CU_#2_7STRCU_#2_7STRCU_#2_7STRACSR_1/0_6/1           units=km enabled=True  phases=3 
New Line.MDV201_DA_8_732_C74453        bus1=39745.3                        bus2=74453.3                        length=0.058826398 geometry=1PH-NONENONEAL_#2_7STRACSR_1/0_6/1                               units=km enabled=True  phases=1 
New Line.MDV201_DA_8_144_ABC6582       bus1=6580                           bus2=6582                           length=0.030784799 geometry=3PH_HORIZ_LG_1C-AL_4/0_7STRAL_4/0_7STRAL_4/0_7STRACSR_1/0_6/1    units=km enabled=True  phases=3 
New Line.MDV201_HN_1_147_C1012412      bus1=1012405.3                      bus2=1012412.3                      length=0.060959998 geometry=1PH-NONENONECU_#6_1STRACSR_1/0_6/1                               units=km enabled=True  phases=1 
New Line.MDV201_HN_2_846_B69620        bus1=69622.2                        bus2=69620.2                        length=0.052120798 geometry=1PH-NONEAL_1/0_7STRNONEACSR_1/0_6/1                              units=km enabled=True  phases=1 
New Line.MDV201_HN_2_814_ABC14891      bus1=63654                          bus2=14891                          length=0.10668     geometry=3PH_HORIZ_LG_1C-AL_4/0_7STRAL_4/0_7STRAL_4/0_7STRACSR_1/0_6/1    units=km enabled=True  phases=3 
New Line.MDV201_DA_8_868_B1103250      bus1=56756.2                        bus2=1103250.2                      length=0.049377598 geometry=1PH-NONECU_#6_1STRNONEACSR_1/0_6/1                               units=km enabled=True  phases=1 
New Line.MDV201_1017350FUSE            bus1=6581.2                         bus2=1017350.2                      length=0.001524    geometry=1PH-NONEBUSBARNONEBUSBAR                                         units=km enabled=True  phases=1 
New Line.MDV201_HN_2_719_C14872        bus1=14876.3                        bus2=14872.3                        length=0.027431999 geometry=1PH-NONENONEAL_1/0_7STRACSR_1/0_6/1                              units=km enabled=True  phases=1 
New Line.MDV201_HN_2_930_B62301        bus1=1144245.2                      bus2=62301.2                        length=0.074675998 geometry=1PH-NONEAL_#2_7STRNONEACSR_1/0_6/1                               units=km enabled=True  phases=1 
New Line.MDV201_HN_2_407_B809          bus1=806.2                          bus2=809.2                          length=0.054559198 geometry=1PH-NONEAL_#2_7STRNONEACSR_1/0_6/1                               units=km enabled=True  phases=1 
New Line.MDV201_HN_2_650_A28242        bus1=28248.1                        bus2=28242.1                        length=0.055473598 geometry=1PH-AL_1/0_7STRNONENONEACSR_1/0_6/1                              units=km enabled=True  phases=1 
New Line.MDV201_DA_8_492_ABC74428      bus1=74420                          bus2=74428                          length=0.050901598 geometry=3PH_HORIZ_LG_1C-AL_4/0_7STRAL_4/0_7STRAL_4/0_7STRACSR_1/0_6/1    units=km enabled=True  phases=3 
New Line.MDV201_HN_2_151_C14833        bus1=14831.3                        bus2=14833.3                        length=0.102108    geometry=1PH-NONENONECU_#6_1STRACSR_1/0_6/1                               units=km enabled=True  phases=1 
New Line.MDV201_HN_2_641_AC14893       bus1=28251.1.3                      bus2=14893.1.3                      length=0.048158398 geometry=2PH_VERT_1C-AL_1/0_7STRNONEAL_1/0_7STRACSR_1/0_6/1               units=km enabled=True  phases=2 
New Line.MDV201_DA_8_203_C46407        bus1=74456.3                        bus2=46407.3                        length=0.078028798 geometry=1PH-NONENONECU_#6_1STRACSR_1/0_6/1                               units=km enabled=True  phases=1 
New Line.MDV201_HN_1_172_A94737        bus1=94736.1                        bus2=94737.1                        length=0.068275198 geometry=1PH-CU_#6_1STRNONENONEACSR_1/0_6/1                               units=km enabled=True  phases=1 
New Line.MDV201_HN_1_165_C89780        bus1=89779.3                        bus2=89780.3                        length=0.065836798 geometry=1PH-NONENONECU_#6_1STRACSR_1/0_6/1                               units=km enabled=True  phases=1 
New Line.MDV201_HN_2_127_C63708        bus1=100480.3                       bus2=63708.3                        length=0.054254398 geometry=1PH-NONENONECU_#6_1STRACSR_1/0_6/1                               units=km enabled=True  phases=1 
New Line.MDV201_PB_0928_A1000987       bus1=1000988.1                      bus2=1000987.1                      length=0.073456798 linecode=UG_1/0AL                                                  units=km enabled=True  phases=1 
New Line.MDV201_HN_2_128_ABC28288      bus1=28287                          bus2=28288                          length=0.066446398 geometry=3PH_HORIZ_LG_1C-AL_1/0_7STRAL_1/0_7STRAL_1/0_7STRACSR_1/0_6/1    units=km enabled=True  phases=3 
New Line.SW-HN_2_381_sw                bus1=1010731                        bus2=MDV201_1010732USD_INT          length=1           switch=y                                                  units=km enabled=True  phases=3 
New Line.MDV201_1010732USD             bus1=MDV201_1010732USD_INT          bus2=1010732                        length=0.001524    geometry=3PH_HORIZ_LG_1C-BUSBARBUSBARBUSBARBUSBAR                         units=km enabled=True  phases=3 
New Line.MDV201_1144262FUSE            bus1=28226.3                        bus2=1144262.3                      length=0.001524    geometry=1PH-NONENONEBUSBARBUSBAR                                         units=km enabled=True  phases=1 
New Line.MDV201_C_1_138_ABC1127424     bus1=69477                          bus2=1127424                        length=0.092659197 geometry=3PH_VERT_1C-AL_556_19STRAL_556_19STRAL_556_19STRACSR_1/0_6/1     units=km enabled=True  phases=3 
New Line.MDV201_DA_8_234_ABC56762      bus1=56751                          bus2=56762                          length=0.059435998 geometry=3PH_HORIZ_LG_1C-AL_4/0_7STRAL_4/0_7STRAL_4/0_7STRACSR_1/0_6/1    units=km enabled=True  phases=3 
New Line.MDV201_1144253FUSE            bus1=6572.2                         bus2=1144253.2                      length=0.001524    geometry=1PH-NONEBUSBARNONEBUSBAR                                         units=km enabled=True  phases=1 
New Line.MDV201_HN_2_120_A28281        bus1=28282.1                        bus2=28281.1                        length=0.061569598 geometry=1PH-CU_#6_1STRNONENONEACSR_1/0_6/1                               units=km enabled=True  phases=1 
New Line.MDV201_HN_1_274_A94747        bus1=94743.1                        bus2=94747.1                        length=0.052120798 geometry=1PH-CU_#6_1STRNONENONEACSR_1/0_6/1                               units=km enabled=True  phases=1 
New Line.MDV201_HN_2_852_B39588        bus1=52519.2                        bus2=39588.2                        length=0.058826398 geometry=1PH-NONEAL_1/0_7STRNONEACSR_1/0_6/1                              units=km enabled=True  phases=1 
New Line.MDV201_HN_2_820_B39623        bus1=39621.2                        bus2=39623.2                        length=0.071323198 geometry=1PH-NONEAL_1/0_7STRNONEACSR_1/0_6/1                              units=km enabled=True  phases=1 
New Line.MDV201_C_1_506_A8143          bus1=1010738.1                      bus2=8143.1                         length=0.024079199 geometry=1PH-AL_#2_7STRNONENONEACSR_1/0_6/1                               units=km enabled=True  phases=1 
New Line.MDV201_DA_8_216_B1017349      bus1=1017348.2                      bus2=1017349.2                      length=0.061874398 geometry=1PH-NONEACSR_1/0_6/1NONEACSR_1/0_6/1                             units=km enabled=True  phases=1 
New Line.MDV201_HN_2_291_ABC63681      bus1=63680                          bus2=63681                          length=0.059435998 geometry=3PH_HORIZ_LG_1C-AL_336_19STRAL_336_19STRAL_336_19STRACSR_1/0_6/1 units=km enabled=True  phases=3 
New Line.MDV201_106259FUSE             bus1=58431.3                        bus2=106259.3                       length=0.001524    geometry=1PH-NONENONEBUSBARBUSBAR                                         units=km enabled=True  phases=1 
New Line.MDV201_HN_2_382_ABC823        bus1=1010732                        bus2=823                            length=0.035051999 geometry=3PH_HORIZ_LG_1C-CU_#2_7STRCU_#2_7STRCU_#2_7STRACSR_1/0_6/1       units=km enabled=True  phases=3 
New Line.MDV201_HN_2_821_B39618        bus1=39621.2                        bus2=39618.2                        length=0.055168798 geometry=1PH-NONEAL_1/0_7STRNONEACSR_1/0_6/1                              units=km enabled=True  phases=1 
New Line.MDV201_HN_2_927_C94731        bus1=1140226.3                      bus2=94731.3                        length=0.065227198 geometry=1PH-NONENONEAL_#2_7STRACSR_1/0_6/1                               units=km enabled=True  phases=1 
New Line.MDV201_HN_2_235_ABC854        bus1=28186                          bus2=854                            length=0.058826398 geometry=3PH_HORIZ_LG_1C-CU_#2_7STRCU_#2_7STRCU_#2_7STRACSR_1/0_6/1       units=km enabled=True  phases=3 
New Line.MDV201_HN_2_306_ABC28286      bus1=28284                          bus2=28286                          length=0.036575999 geometry=3PH_HORIZ_LG_1C-AL_1/0_7STRAL_1/0_7STRAL_1/0_7STRACSR_1/0_6/1    units=km enabled=True  phases=3 
New Line.MDV201_C_1_411_A8127          bus1=8131.1                         bus2=8127.1                         length=0.054863998 geometry=1PH-AL_#2_7STRNONENONEACSR_1/0_6/1                               units=km enabled=True  phases=1 
New Line.MDV201_HN_2_520_A8092         bus1=8090.1                         bus2=8092.1                         length=0.063703198 geometry=1PH-AL_#2_7STRNONENONEACSR_1/0_6/1                               units=km enabled=True  phases=1 
New Line.MDV201_HN_2_420_A814          bus1=808.1                          bus2=814.1                          length=0.028955999 geometry=1PH-AL_#2_7STRNONENONEACSR_1/0_6/1                               units=km enabled=True  phases=1 
New Line.MDV201_HN_2_153_B14829        bus1=14828.2                        bus2=14829.2                        length=0.053644798 geometry=1PH-NONECU_#6_1STRNONEACSR_1/0_6/1                               units=km enabled=True  phases=1 
New Line.MDV201_HN_2_870_C831          bus1=830.3                          bus2=831.3                          length=0.053644798 geometry=1PH-NONENONEAL_1/0_7STRACSR_1/0_6/1                              units=km enabled=True  phases=1 
New Line.MDV201_C_1_354_B1008227       bus1=1008229.2                      bus2=1008227.2                      length=0.058826398 geometry=1PH-NONEAL_#2_7STRNONEACSR_1/0_6/1                               units=km enabled=True  phases=1 
New Line.MDV201_HN_21036_ABC28186      bus1=28189                          bus2=28186                          length=0.068884798 geometry=3PH_HORIZ_LG_1C-CU_#2_7STRCU_#2_7STRCU_#2_7STRACSR_1/0_6/1       units=km enabled=True  phases=3 
New Line.MDV201_DA_8_139_B56756        bus1=6581.2                         bus2=56756.2                        length=0.126492    geometry=1PH-NONECU_#6_1STRNONEACSR_1/0_6/1                               units=km enabled=True  phases=1 
New Line.MDV201_HN_2_422_A790          bus1=785.1                          bus2=790.1                          length=0.046939198 geometry=1PH-AL_#2_7STRNONENONEACSR_1/0_6/1                               units=km enabled=True  phases=1 
New Line.HN_2P011_sw                   bus1=1160477.2                      bus2=MDV201_15005ELB_INT.2          length=1           switch=y                                                  units=km enabled=True  phases=1 
New Line.MDV201_15005ELB               bus1=MDV201_15005ELB_INT.2          bus2=15005.2                        length=0.001524    linecode=BUSBAR                                                  units=km enabled=True  phases=1 
New Line.MDV201_1149717FUSE            bus1=56778                          bus2=1149717                        length=0.001524    geometry=3PH_HORIZ_LG_1C-BUSBARBUSBARBUSBARBUSBAR                         units=km enabled=True  phases=3 
New Line.MDV201_DA_8_218_B8204         bus1=8205.2                         bus2=8204.2                         length=0.050901598 geometry=1PH-NONEACSR_1/0_6/1NONEACSR_1/0_6/1                             units=km enabled=True  phases=1 
New Line.MDV201_HN_2_387_B804          bus1=802.2                          bus2=804.2                          length=0.051815998 geometry=1PH-NONEAL_#2_7STRNONEACSR_1/0_6/1                               units=km enabled=True  phases=1 
New Line.MDV201_HN_2_859_B94734        bus1=94733.2                        bus2=94734.2                        length=0.053949598 geometry=1PH-NONEAL_#2_7STRNONEACSR_1/0_6/1                               units=km enabled=True  phases=1 
New Line.MDV201_HN_2_830_A14875        bus1=14873.1                        bus2=14875.1                        length=0.031699199 geometry=1PH-AL_#2_7STRNONENONEACSR_1/0_6/1                               units=km enabled=True  phases=1 
New Line.MDV201_1012406FUSE            bus1=58441.3                        bus2=1012406.3                      length=0.001524    geometry=1PH-NONENONEBUSBARBUSBAR                                         units=km enabled=True  phases=1 
New Line.MDV201_HN_2_186_ABC15011      bus1=39764                          bus2=15011                          length=0.1085088   geometry=3PH_HORIZ_LG_1C-AL_4/0_7STRAL_4/0_7STRAL_4/0_7STRACSR_1/0_6/1    units=km enabled=True  phases=3 
New Line.MDV201_HN_2_522_C855          bus1=8087.3                         bus2=855.3                          length=0.074980798 geometry=1PH-NONENONEAL_#2_7STRACSR_1/0_6/1                               units=km enabled=True  phases=1 
New Line.MDV201_108027FUSE             bus1=69623.3                        bus2=108027.3                       length=0.001524    geometry=1PH-NONENONEBUSBARBUSBAR                                         units=km enabled=True  phases=1 
New Line.MDV201_1010727FUSE            bus1=63638.1                        bus2=1010727.1                      length=0.001524    geometry=1PH-BUSBARNONENONEBUSBAR                                         units=km enabled=True  phases=1 
New Line.MDV201_HN_2_831_ABC39762      bus1=39763                          bus2=39762                          length=0.013716    geometry=3PH_HORIZ_LG_1C-AL_4/0_7STRAL_4/0_7STRAL_4/0_7STRACSR_1/0_6/1    units=km enabled=True  phases=3 
New Line.MDV201_1145433FUSE            bus1=89785.3                        bus2=1145433.3                      length=0.001524    geometry=1PH-NONENONEBUSBARBUSBAR                                         units=km enabled=True  phases=1 
New Line.MDV201_HN_2_540_C8108         bus1=8098.3                         bus2=8108.3                         length=0.032308799 geometry=1PH-NONENONEAL_#2_7STRACSR_1/0_6/1                               units=km enabled=True  phases=1 
New Line.MDV201_HN_2_653_A14878        bus1=14881.1                        bus2=14878.1                        length=0.054559198 geometry=1PH-AL_1/0_7STRNONENONEACSR_1/0_6/1                              units=km enabled=True  phases=1 
New Line.MDV201_C_1_083_B69488         bus1=69485.2                        bus2=69488.2                        length=0.030175199 geometry=1PH-NONECU_#6_1STRNONEACSR_1/0_6/1                               units=km enabled=True  phases=1 
New Line.MDV201_HN_2P016_B1160487      bus1=1160482.2                      bus2=1160487.2                      length=0.091135197 linecode=UG_1/0AL                                                  units=km enabled=True  phases=1 
...
!New	Line.PIT201_C_1_138_ABC1174591	bus1=69475	bus2=1174591	length=0.095097597	geometry=3PH_HORIZ_LG_1C-AL_556_19STRAL_556_19STRAL_556_19STRACSR_1/0_6/1	units=km	enabled=True						phases=3
New Line.MDV201_DA_8_809_C46402        bus1=46400.3                        bus2=46402.3                        length=0.067055998 geometry=1PH-NONENONEAL_1/0_7STRACSR_1/0_6/1                              units=km enabled=True  phases=1 
New Line.MDV201_1144263FUSE            bus1=63684.1                        bus2=1144263.1                      length=0.001524    geometry=1PH-BUSBARNONENONEBUSBAR                                         units=km enabled=True  phases=1 
New Line.MDV201_HN_2_868_C833          bus1=1144261.3                      bus2=833.3                          length=0.066446398 geometry=1PH-NONENONEAL_1/0_7STRACSR_1/0_6/1                              units=km enabled=True  phases=1 
New Line.MDV201_HN_2_836_B39616        bus1=39615.2                        bus2=39616.2                        length=0.039319199 geometry=1PH-NONEAL_1/0_7STRNONEACSR_1/0_6/1                              units=km enabled=True  phases=1 
New Line.MDV201_103731FUSE             bus1=39611.1                        bus2=103731.1                       length=0.001524    geometry=1PH-BUSBARNONENONEBUSBAR                                         units=km enabled=True  phases=1 
New Line.MDV201_C_1P031_A1160501       bus1=1160500.1                      bus2=1160501.1                      length=0.061569598 linecode=UG_1/0AL                                                  units=km enabled=True  phases=1 
New Line.MDV201_HN_2_404_B799          bus1=792.2                          bus2=799.2                          length=0.025907999 geometry=1PH-NONEAL_#2_7STRNONEACSR_1/0_6/1                               units=km enabled=True  phases=1 
New Line.MDV201_HN_2_121_C28294        bus1=28293.3                        bus2=28294.3                        length=0.046634399 geometry=1PH-NONENONECU_#6_1STRACSR_1/0_6/1                               units=km enabled=True  phases=1 
New Line.MDV201_C_1_389_A1000986       bus1=1000985.1                      bus2=1000986.1                      length=0.040233599 geometry=1PH-AL_#2_7STRNONENONEACSR_1/0_6/1                               units=km enabled=True  phases=1 
New Line.MDV201_HN_2_491_C8114         bus1=8110.3                         bus2=8114.3                         length=0.061874398 geometry=1PH-NONENONEAL_#2_7STRACSR_1/0_6/1                               units=km enabled=True  phases=1 
New Line.MDV201_HN_2_837_B39584        bus1=103729.2                       bus2=39584.2                        length=0.037795199 geometry=1PH-NONEAL_1/0_7STRNONEACSR_1/0_6/1                              units=km enabled=True  phases=1 
New Line.MDV201_DA_8_150_ABC56781      bus1=56778                          bus2=56781                          length=0.086258397 geometry=3PH_HORIZ_LG_1C-AL_4/0_7STRAL_4/0_7STRAL_4/0_7STRACSR_1/0_6/1    units=km enabled=True  phases=3 
New Line.MDV201_C_1P026_A1160505       bus1=1160504.1                      bus2=1160505.1                      length=0.053949598 linecode=UG_1/0AL                                                  units=km enabled=True  phases=1 
New Line.MDV201_HN_2_659_C62237        bus1=62236.3                        bus2=62237.3                        length=0.059131198 geometry=1PH-NONENONEAL_1/0_7STRACSR_1/0_6/1                              units=km enabled=True  phases=1 
New Line.MDV201_HN_2_893_A39590        bus1=103728.1                       bus2=39590.1                        length=0.050901598 geometry=1PH-CU_#6_1STRNONENONEACSR_1/0_6/1                               units=km enabled=True  phases=1 
New Line.HN_2P009_sw                   bus1=1160473.2                      bus2=MDV201_15008ELB_INT.2          length=1           switch=y                                                  units=km enabled=True  phases=1 
New Line.MDV201_15008ELB               bus1=MDV201_15008ELB_INT.2          bus2=15008.2                        length=0.001524    linecode=BUSBAR                                                  units=km enabled=True  phases=1 
New Line.MDV201_HN_2_173_B39600        bus1=39599.2                        bus2=39600.2                        length=0.059435998 geometry=1PH-NONEAL_#2_7STRNONEACSR_1/0_6/1                               units=km enabled=True  phases=1 
New Line.MDV201_HN_2_220_B44580        bus1=8162.2                         bus2=44580.2                        length=0.084429597 geometry=1PH-NONECU_#6_1STRNONEACSR_1/0_6/1                               units=km enabled=True  phases=1 
New Line.MDV201_HN_2_630_C28228        bus1=28233.3                        bus2=28228.3                        length=0.053339998 geometry=1PH-NONENONEAL_1/0_7STRACSR_1/0_6/1                              units=km enabled=True  phases=1 
New Line.MDV201_HN_2_427_B826          bus1=816.2                          bus2=826.2                          length=0.063093598 geometry=1PH-NONEAL_#2_7STRNONEACSR_1/0_6/1                               units=km enabled=True  phases=1 
New Line.MDV201_C_1P032_A69460         bus1=1160462.1                      bus2=69460.1                        length=0.069189598 linecode=UG_1/0AL                                                  units=km enabled=True  phases=1 
New Line.MDV201_HN_2_350_ABC52517      bus1=39576                          bus2=52517                          length=0.047853598 geometry=3PH_HORIZ_LG_1C-AL_1/0_7STRAL_1/0_7STRAL_1/0_7STRACSR_1/0_6/1    units=km enabled=True  phases=3 
New Line.MDV201_HN_2_796_ABC782        bus1=788                            bus2=782                            length=0.067970398 geometry=3PH_VERT_1C-AL_556_19STRAL_556_19STRAL_556_19STRACSR_1/0_6/1     units=km enabled=True  phases=3 
New Line.MDV201_HN_1_174_A94742        bus1=94739.1                        bus2=94742.1                        length=0.078333597 geometry=1PH-CU_#6_1STRNONENONEACSR_1/0_6/1                               units=km enabled=True  phases=1 
New Line.MDV201_HN_2_084_B38389        bus1=106882.2                       bus2=38389.2                        length=0.092659197 geometry=1PH-NONECU_#6_1STRNONEACSR_1/0_6/1                               units=km enabled=True  phases=1 
New Line.MDV201_HN_2_875_C63670        bus1=63669.3                        bus2=63670.3                        length=0.029870399 geometry=1PH-NONENONEAL_1/0_7STRACSR_1/0_6/1                              units=km enabled=True  phases=1 
New Line.MDV201_1160504ELB-1_sw        bus1=8101.1                         bus2=MDV201_1160504ELB_INT.1        length=1           switch=y                                                  units=km enabled=True  phases=1 
New Line.MDV201_1160504ELB             bus1=MDV201_1160504ELB_INT.1        bus2=1160504.1                      length=0.001524    linecode=BUSBAR                                                  units=km enabled=True  phases=1 
New Line.MDV201_HN_2P028_A1160489      bus1=1010728.1                      bus2=1160489.1                      length=0.1197864   linecode=UG_1/0AL                                                  units=km enabled=True  phases=1 
New Line.MDV201_HN_2_622_C28223        bus1=28222.3                        bus2=28223.3                        length=0.061264798 geometry=1PH-NONENONEAL_1/0_7STRACSR_1/0_6/1                              units=km enabled=True  phases=1 
New Line.MDV201_HN_2_842_B94740        bus1=94728.2                        bus2=94740.2                        length=0.066751198 geometry=1PH-NONEAL_1/0_7STRNONEACSR_1/0_6/1                              units=km enabled=True  phases=1 
New Line.MDV201_C_1_066_ABC8078        bus1=8079                           bus2=8078                           length=0.048463198 geometry=3PH_HORIZ_LG_1C-CU_#2_7STRCU_#2_7STRCU_#2_7STRACSR_1/0_6/1       units=km enabled=True  phases=3 
New Line.MDV201_HN_1_173_A94739        bus1=94737.1                        bus2=94739.1                        length=0.077419198 geometry=1PH-CU_#6_1STRNONENONEACSR_1/0_6/1                               units=km enabled=True  phases=1 
New Line.MDV201_HN_1_150_C1012408      bus1=1012411.3                      bus2=1012408.3                      length=0.017068799 geometry=1PH-NONENONEAL_1/0_7STRACSR_1/0_6/1                              units=km enabled=True  phases=1 
New Line.MDV201_C_1P022_A1160458       bus1=8143.1                         bus2=1160458.1                      length=0.056692798 linecode=UG_1/0AL                                                  units=km enabled=True  phases=1 
New Line.MDV201_106884FUSE             bus1=62242.3                        bus2=106884.3                       length=0.001524    geometry=1PH-NONENONEBUSBARBUSBAR                                         units=km enabled=True  phases=1 
New Line.MDV201_1144243FUSE            bus1=8124.3                         bus2=1144243.3                      length=0.001524    geometry=1PH-NONENONEBUSBARBUSBAR                                         units=km enabled=True  phases=1 
New Line.MDV201_HN_2_843_B69621        bus1=94740.2                        bus2=69621.2                        length=0.064007998 geometry=1PH-NONEAL_1/0_7STRNONEACSR_1/0_6/1                              units=km enabled=True  phases=1 
New Line.MDV201_1160472ELB-1_sw        bus1=6568.2                         bus2=MDV201_1160472ELB_INT.2        length=1           switch=y                                                  units=km enabled=True  phases=1 
New Line.MDV201_1160472ELB             bus1=MDV201_1160472ELB_INT.2        bus2=1160472.2                      length=0.001524    linecode=BUSBAR                                                  units=km enabled=True  phases=1 
New Line.MDV201_HN_2_356_C28301        bus1=63703.3                        bus2=28301.3                        length=0.046024799 geometry=1PH-NONENONECU_#6_1STRACSR_1/0_6/1                               units=km enabled=True  phases=1 
New Line.MDV201_HN_2_666_C62312        bus1=62311.3                        bus2=62312.3                        length=0.060959998 geometry=1PH-NONENONEAL_1/0_7STRACSR_1/0_6/1                              units=km enabled=True  phases=1 
New Line.MDV201_HN_2_802_B836          bus1=840.2                          bus2=836.2                          length=0.048767998 geometry=1PH-NONEAL_1/0_7STRNONEACSR_1/0_6/1                              units=km enabled=True  phases=1 
New Line.MDV201_HN_1_210_A28279        bus1=28280.1                        bus2=28279.1                        length=0.042367199 geometry=1PH-CU_#6_1STRNONENONEACSR_1/0_6/1                               units=km enabled=True  phases=1 
New Line.MDV201_HN_2_616_ABC28226      bus1=28232                          bus2=28226                          length=0.040538399 geometry=3PH_HORIZ_LG_1C-AL_336_19STRAL_336_19STRAL_336_19STRACSR_1/0_6/1 units=km enabled=True  phases=3 
New Line.MDV201_HN_2_212_C14834        bus1=14833.3                        bus2=14834.3                        length=0.081076797 geometry=1PH-NONENONECU_#6_1STRACSR_1/0_6/1                               units=km enabled=True  phases=1 
New Line.MDV201_HN_1_154_C89826        bus1=28311.3                        bus2=89826.3                        length=0.061264798 geometry=1PH-NONENONEAL_1/0_7STRACSR_1/0_6/1                              units=km enabled=True  phases=1 
New Line.MDV201_HN_2_393_ABC63659      bus1=63658                          bus2=63659                          length=0.053949598 geometry=3PH_VERT_1C-AL_556_19STRAL_556_19STRAL_556_19STRACSR_1/0_6/1     units=km enabled=True  phases=3 
New Line.MDV201_HN_2_911_C44579        bus1=44578.3                        bus2=44579.3                        length=0.077723998 geometry=1PH-NONENONEAL_#2_7STRACSR_1/0_6/1                               units=km enabled=True  phases=1 
New Line.MDV201_HN_2_030_ABC62265      bus1=62264                          bus2=62265                          length=0.054863998 geometry=3PH_HORIZ_LG_1C-AL_4/0_7STRAL_4/0_7STRAL_4/0_7STRACSR_1/0_6/1    units=km enabled=True  phases=3 
New Line.MDV201_HN_2_638_C28237        bus1=28240.3                        bus2=28237.3                        length=0.051511198 geometry=1PH-NONENONEAL_1/0_7STRACSR_1/0_6/1                              units=km enabled=True  phases=1 
New Line.MDV201_DA_8_946_B56776        bus1=56775.2                        bus2=56776.2                        length=0.054863998 geometry=1PH-NONEAL_1/0_7STRNONEACSR_1/0_6/1                              units=km enabled=True  phases=1 
...