omf/scratch/OpenDssDemo/example/ckt5_Curr_Elem.Txt

CIRCUIT ELEMENT CURRENTS

(Currents into element from indicated bus)

Power Delivery Elements

  Bus                          Phase    Magnitude, A     Angle      (Real)   +j  (Imag)

ELEMENT = "Vsource.SOURCE"
SOURCEBUS                          1           39.287 /_  155.1 =    -35.647 +j    16.515
SOURCEBUS                          2           39.309 /_   32.5 =     33.141 +j     21.14
SOURCEBUS                          3           37.739 /_  -86.2 =     2.5066 +j   -37.655
------------
SOURCEBUS                          0           39.287 /_  -24.9 =     35.647 +j   -16.515
SOURCEBUS                          0           39.309 /_ -147.5 =    -33.141 +j    -21.14
SOURCEBUS                          0           37.739 /_   93.8 =    -2.5066 +j    37.655

ELEMENT = "Line.MDV201_CONNECTOR"
_MDV_SUB_1_LSB                     1           350.63 /_  -56.7 =      192.4 +j   -293.13
_MDV_SUB_1_LSB                     2           378.14 /_ -175.6 =       -377 +j   -29.328
_MDV_SUB_1_LSB                     3           343.94 /_   63.7 =     152.36 +j    308.35
------------
MDV201                             1           350.63 /_  123.3 =     -192.4 +j    293.13
MDV201                             2           378.14 /_    4.4 =        377 +j    29.328
MDV201                             3           343.94 /_ -116.3 =    -152.36 +j   -308.35

ELEMENT = "Line.MDV201_HN_1_275_A94744"
94743                              1          0.91588 /_  -56.3 =    0.50784 +j  -0.76219
------------
94744                              1          0.91644 /_  123.6 =     -0.507 +j   0.76342

ELEMENT = "Line.MDV201_HN_2_466_C62235"
62244                              3           19.236 /_   63.7 =     8.5149 +j    17.249
------------
62235                              3           19.237 /_ -116.3 =    -8.5157 +j   -17.249

ELEMENT = "Line.MDV201_DA_8_780_A1144234"
1144235                            1           2.4691 /_  -57.0 =     1.3433 +j   -2.0716
------------
1144234                            1           2.4699 /_  122.9 =    -1.3421 +j    2.0734

ELEMENT = "Line.MDV201_1160486ELB-1_SW"
39754                              2           7.1785 /_ -175.0 =     -7.151 +j  -0.62868
------------
MDV201_1160486ELB_INT              2           7.1785 /_    5.0 =      7.151 +j   0.62868

ELEMENT = "Line.MDV201_1160486ELB"
MDV201_1160486ELB_INT              2           7.1785 /_ -175.0 =     -7.151 +j  -0.62869
------------
1160486                            2           7.1785 /_    5.0 =      7.151 +j   0.62869

ELEMENT = "Line.MDV201_HN_2P009_B1160473"
1160476                            2           26.873 /_ -175.0 =    -26.769 +j   -2.3584
------------
1160473                            2           26.877 /_    5.0 =     26.774 +j    2.3484

ELEMENT = "Line.MDV201_HN_2_088_ABC8164"
8163                               1           85.327 /_  -56.9 =     46.606 +j   -71.474
8163                               2           57.756 /_ -175.5 =    -57.579 +j   -4.5166
8163                               3           124.65 /_   63.9 =     54.886 +j    111.91
------------
8164                               1           85.328 /_  123.1 =    -46.605 +j    71.476
8164                               2           57.756 /_    4.5 =      57.58 +j    4.5144
8164                               3           124.65 /_ -116.1 =    -54.888 +j   -111.91

ELEMENT = "Line.MDV201_HN_2_319_B39610"
103730                             2           1.5345 /_ -176.0 =    -1.5307 +j  -0.10796
------------
39610                              2           1.5347 /_    4.0 =     1.5309 +j   0.10763

ELEMENT = "Line.MDV201_HN_2_417_A842"
835                                1            12.26 /_  -56.9 =     6.7017 +j   -10.266
------------
842                                1            12.26 /_  123.1 =    -6.7012 +j    10.267

ELEMENT = "Line.MDV201_HN_2_941_B39760"
39775                              2           5.5174 /_ -175.2 =    -5.4978 +j  -0.46422
------------
39760                              2           5.5178 /_    4.8 =     5.4983 +j    0.4632

ELEMENT = "Line.MDV201_1160480ELB-1_SW"
15004                              2           20.248 /_ -175.0 =     -20.17 +j   -1.7758
------------
MDV201_1160480ELB_INT              2           20.248 /_    5.0 =      20.17 +j    1.7758

ELEMENT = "Line.MDV201_1160480ELB"
MDV201_1160480ELB_INT              2           20.248 /_ -175.0 =     -20.17 +j   -1.7758
------------
1160480                            2           20.248 /_    5.0 =      20.17 +j    1.7758

ELEMENT = "Line.C_1P034_SW"
1160492                            1           10.895 /_  -56.3 =     6.0502 +j   -9.0612
------------
MDV201_8088ELB_INT                 1           10.895 /_  123.7 =    -6.0502 +j    9.0612

ELEMENT = "Line.MDV201_8088ELB"
MDV201_8088ELB_INT                 1           10.895 /_  -56.3 =     6.0502 +j   -9.0612
------------
8088                               1           10.895 /_  123.7 =    -6.0502 +j    9.0612

ELEMENT = "Line.MDV201_HN_2_499_ABC834"
829                                1           106.97 /_  -56.4 =     59.258 +j   -89.051
829                                2           138.61 /_ -175.6 =    -138.21 +j   -10.571
829                                3           100.18 /_   63.6 =     44.497 +j    89.753
------------
834                                1           106.97 /_  123.6 =    -59.257 +j    89.053
834                                2           138.61 /_    4.4 =     138.21 +j    10.569
834                                3           100.18 /_ -116.4 =    -44.499 +j   -89.753

ELEMENT = "Line.MDV201_1160478ELB-1_SW"
15005                              2           14.942 /_ -175.0 =    -14.885 +j   -1.3042
------------
MDV201_1160478ELB_INT              2           14.942 /_    5.0 =     14.885 +j    1.3042

ELEMENT = "Line.MDV201_1160478ELB"
MDV201_1160478ELB_INT              2           14.942 /_ -175.0 =    -14.885 +j   -1.3042
------------
1160478                            2           14.942 /_    5.0 =     14.885 +j    1.3042

ELEMENT = "Line.MDV201_HN_2_217_ABC8160"
44582                              1           85.325 /_  -56.9 =     46.608 +j    -71.47
44582                              2           62.124 /_ -175.5 =    -61.935 +j   -4.8472
44582                              3           137.13 /_   63.9 =     60.414 +j     123.1
------------
8160                               1           85.325 /_  123.1 =    -46.608 +j    71.471
8160                               2           62.124 /_    4.5 =     61.935 +j    4.8465
8160                               3           137.13 /_ -116.1 =    -60.414 +j    -123.1

ELEMENT = "Line.MDV201_HN_2_942_C89791"
89783                              3           15.766 /_   63.9 =     6.9313 +j    14.161
------------
89791                              3           15.767 /_ -116.1 =    -6.9323 +j   -14.161

ELEMENT = "Line.MDV201_99422FUSE"
6584                               1           19.912 /_  -56.9 =     10.877 +j   -16.678
------------
99422                              1           19.912 /_  123.1 =    -10.877 +j    16.678

ELEMENT = "Line.MDV201_HN_2_140_ABC8124"
8113                               1           21.893 /_  -57.2 =     11.858 +j   -18.404
8113                               2           1.3942 /_ -176.0 =    -1.3909 +j -0.096967
8113                               3           10.642 /_   63.5 =     4.7462 +j     9.525
------------
8124                               1           21.894 /_  122.8 =    -11.857 +j    18.405
8124                               2           1.3949 /_    3.9 =     1.3916 +j  0.095437
8124                               3           10.642 /_ -116.5 =    -4.7477 +j   -9.5247

ELEMENT = "Line.MDV201_HN_2_818_ABC63707"
14880                              1           15.701 /_  -56.8 =     8.5961 +j   -13.139
14880                              2           93.355 /_ -175.3 =    -93.036 +j   -7.7154
14880                              3           18.901 /_   63.3 =     8.4878 +j    16.888
------------
63707                              1           15.702 /_  123.2 =    -8.5954 +j     13.14
63707                              2           93.356 /_    4.7 =     93.037 +j    7.7139
63707                              3           18.901 /_ -116.7 =    -8.4893 +j   -16.887

ELEMENT = "Line.MDV201_DA_8_731_C74450"
74449                              3           2.3023 /_   64.0 =     1.0089 +j    2.0695
------------
74450                              3           2.3027 /_ -116.0 =    -1.0098 +j   -2.0694

ELEMENT = "Line.MDV201_100494FUSE"
14989                              2           1.2382 /_ -176.2 =    -1.2355 +j -0.082793
------------
100494                             2           1.2382 /_    3.8 =     1.2355 +j  0.082749

ELEMENT = "Line.MDV201_107110FUSE"
63683                              1           36.885 /_  -56.8 =     20.203 +j    -30.86
63683                              3            18.59 /_   63.8 =     8.2141 +j    16.677
------------
107110                             1           36.885 /_  123.2 =    -20.203 +j     30.86
107110                             3            18.59 /_ -116.2 =    -8.2141 +j   -16.677

ELEMENT = "Line.MDV201_HN_2_477_C8121"
1144242                            3           8.9079 /_   63.5 =      3.972 +j    7.9733
------------
8121                               3           8.9083 /_ -116.5 =     -3.973 +j   -7.9733

ELEMENT = "Line.MDV201_HN_2_876_C63671"
63668                              3           15.216 /_   63.8 =     6.7128 +j    13.655
------------
63671                              3           15.217 /_ -116.2 =    -6.7138 +j   -13.655

ELEMENT = "Line.MDV201_HN_2_671_C89781"
89784                              3           39.401 /_   63.9 =     17.307 +j    35.396
------------
89781                              3           39.401 /_ -116.1 =    -17.308 +j   -35.396

ELEMENT = "Line.MDV201_DA_8_930_A39751"
39734                              1           7.5246 /_  -56.9 =     4.1138 +j   -6.3004
------------
39751                              1           7.5251 /_  123.1 =    -4.1131 +j    6.3015

ELEMENT = "Line.MDV201_HN_2_394_ABC63658"
63657                              1           226.28 /_  -56.6 =     124.44 +j      -189
63657                              2           303.92 /_ -175.5 =       -303 +j   -23.596
63657                              3           206.82 /_   63.6 =     91.994 +j    185.24
------------
63658                              1           226.28 /_  123.4 =    -124.43 +j       189
63658                              2           303.92 /_    4.5 =        303 +j    23.595
63658                              3           206.82 /_ -116.4 =    -91.995 +j   -185.24

ELEMENT = "Line.MDV201_DA_8_687_B74448"
74445                              2           25.259 /_ -175.6 =    -25.185 +j   -1.9225
------------
74448                              2           25.259 /_    4.4 =     25.186 +j    1.9217

ELEMENT = "Line.MDV201_1012643FUSE"
1012641                            3          0.62408 /_   64.5 =    0.26914 +j   0.56306
------------
1012643                            3           0.6241 /_ -115.6 =   -0.26919 +j  -0.56306

ELEMENT = "Line.MDV201_HN_1_238_A39569"
39570                              1           2.2296 /_  -56.3 =      1.238 +j   -1.8543
------------
39569                              1           2.2301 /_  123.7 =    -1.2373 +j    1.8553

ELEMENT = "Line.MDV201_14869FUSE"
14858                              1           15.777 /_  -56.8 =       8.63 +j   -13.208
------------
14869                              1           15.777 /_  123.2 =      -8.63 +j    13.208

ELEMENT = "Line.MDV201_HN_1_156_C89790"
89796                              3           1.8303 /_   63.4 =    0.81959 +j    1.6366
------------
89790                              3            1.831 /_ -116.7 =   -0.82138 +j   -1.6364

ELEMENT = "Line.MDV201_HN_2_318_C28272"
28271                              3           1.4805 /_   63.3 =    0.66574 +j    1.3224
------------
28272                              3            1.481 /_ -116.8 =   -0.66709 +j   -1.3223

ELEMENT = "Line.MDV201_C_1_140_ABC69477"
69478                              1        0.0060727 /_   60.6 =  0.0029799 +j 0.0052914
69478                              2           0.0909 /_ -175.0 =  -0.090556 +j -0.007894
69478                              3        0.0057099 /_  169.3 =  -0.0056113 +j 0.0010568
------------
69477                              1        0.0028413 /_ -119.4 =  -0.0013927 +j -0.0024765
69477                              2          0.09216 /_    3.0 =   0.092032 +j 0.0048593
69477                              3        0.0026739 /_  -10.7 =  0.0026275 +j -0.00049584

ELEMENT = "Line.MDV201_HN_2_948_C8176"
8175                               3           3.0542 /_   64.0 =     1.3375 +j    2.7457
------------
8176                               3           3.0545 /_ -116.0 =    -1.3384 +j   -2.7457

ELEMENT = "Line.MDV201_1144230FUSE"
8184                               1           7.1353 /_  -56.7 =     3.9161 +j   -5.9646
------------
1144230                            1           7.1353 /_  123.3 =    -3.9161 +j    5.9647

ELEMENT = "Line.MDV201_HN_2_105_ABC39582"
39595                              1            24.52 /_  -56.5 =     13.543 +j   -20.441
39595                              2           69.177 /_ -175.6 =    -68.973 +j   -5.3051
39595                              3           34.883 /_   63.4 =       15.6 +j      31.2
------------
39582                              1           24.521 /_  123.5 =    -13.542 +j    20.443
39582                              2           69.178 /_    4.4 =     68.974 +j    5.3031
39582                              3           34.884 /_ -116.6 =    -15.602 +j     -31.2

ELEMENT = "Line.MDV201_DA_8_691_B46386"
46385                              2           15.317 /_ -175.6 =    -15.273 +j   -1.1673
------------
46386                              2           15.318 /_    4.4 =     15.273 +j    1.1665

ELEMENT = "Line.MDV201_HN_2_457_C62244"
106884                             3           20.386 /_   63.7 =     9.0287 +j    18.278
------------
62244                              3           20.387 /_ -116.3 =    -9.0293 +j   -18.278

ELEMENT = "Line.C_1P038_SW"
1160493                            1            21.56 /_  -56.2 =     11.991 +j   -17.918
------------
MDV201_8075ELB_INT                 1            21.56 /_  123.8 =    -11.991 +j    17.918

ELEMENT = "Line.MDV201_8075ELB"
MDV201_8075ELB_INT                 1            21.56 /_  -56.2 =     11.991 +j   -17.918
------------
8075                               1            21.56 /_  123.8 =    -11.991 +j    17.918

ELEMENT = "Line.C_1P032_SW"
69460                              1           3.1086 /_  -56.5 =     1.7177 +j   -2.5909
------------
MDV201_107997ELB_INT               1           3.1086 /_  123.5 =    -1.7177 +j    2.5909

ELEMENT = "Line.MDV201_107997ELB"
MDV201_107997ELB_INT               1           3.1086 /_  -56.5 =     1.7177 +j   -2.5909
------------
107997                             1           3.1086 /_  123.5 =    -1.7177 +j    2.5909

ELEMENT = "Line.MDV201_HN_2_949_C8180"
8176                               3           3.0545 /_   64.0 =     1.3384 +j    2.7457
------------
8180                               3           3.0547 /_ -116.0 =    -1.3389 +j   -2.7456

ELEMENT = "Line.MDV201_C_1P024_A8100"
1160461                            1           19.936 /_  -56.2 =     11.104 +j   -16.558
------------
8100                               1           19.945 /_  123.8 =    -11.091 +j    16.577

ELEMENT = "Line.MDV201_HN_2_166_C33824"
39776                              3           5.1606 /_   63.5 =     2.3058 +j    4.6168
------------
33824                              3            5.161 /_ -116.6 =     -2.307 +j   -4.6167

ELEMENT = "Line.MDV201_HN_2_827_A14873"
1140227                            1           2.7545 /_  -56.9 =     1.5027 +j   -2.3086
------------
14873                              1           2.7548 /_  123.0 =    -1.5022 +j    2.3092

ELEMENT = "Line.HN_2P017_SW"
1160488                            2           1.4709 /_ -175.6 =    -1.4665 +j  -0.11353
------------
MDV201_62249ELB_INT                2           1.4709 /_    4.4 =     1.4665 +j   0.11352

ELEMENT = "Line.MDV201_62249ELB"
MDV201_62249ELB_INT                2           1.4709 /_ -175.6 =    -1.4665 +j  -0.11352
------------
62249                              2           1.4709 /_    4.4 =     1.4665 +j   0.11352

ELEMENT = "Line.MDV201_HN_2_397_B63634"
107106                             2           15.957 /_ -175.8 =    -15.913 +j   -1.1799
------------
63634                              2           15.957 /_    4.2 =     15.913 +j     1.179

ELEMENT = "Line.MDV201_C_1P037_A1160467"
1160494                            1           18.802 /_  -56.2 =     10.462 +j   -15.622
------------
1160467                            1           18.804 /_  123.8 =    -10.457 +j    15.629

ELEMENT = "Line.MDV201_HN_2_280_A8185"
1144230                            1           1.0674 /_  -56.6 =    0.58768 +j  -0.89105
------------
8185                               1           1.0677 /_  123.4 =   -0.58726 +j   0.89167

ELEMENT = "Line.MDV201_HN_2_794_ABC791"
796                                1           350.64 /_  -56.7 =      192.4 +j   -293.13
796                                2           378.14 /_ -175.6 =       -377 +j   -29.327
796                                3           343.94 /_   63.7 =     152.37 +j    308.34
------------
791                                1           350.64 /_  123.3 =     -192.4 +j    293.13
791                                2           378.14 /_    4.4 =        377 +j    29.325
791                                3           343.94 /_ -116.3 =    -152.37 +j   -308.34

ELEMENT = "Line.MDV201_HN_2_677_C62303"
62306                              3            5.374 /_   63.9 =     2.3679 +j    4.8242
------------
62303                              3           5.3744 /_ -116.2 =    -2.3691 +j   -4.8241

ELEMENT = "Line.MDV201_100478FUSE"
14839                              3          0.77148 /_   62.4 =    0.35785 +j   0.68347
------------
100478                             3           0.7715 /_ -117.6 =    -0.3579 +j  -0.68346

ELEMENT = "Line.MDV201_HN_2_115_ABC58446"
58441                              1           5.8154 /_  -56.8 =     3.1804 +j   -4.8686
58441                              2           3.2687 /_ -175.9 =    -3.2604 +j  -0.23379
58441                              3           22.445 /_   63.4 =     10.037 +j    20.075
------------
58446                              1           5.8159 /_  123.1 =    -3.1799 +j    4.8696
58446                              2           3.2692 /_    4.1 =     3.2609 +j   0.23272
58446                              3           22.445 /_ -116.6 =    -10.038 +j   -20.075

ELEMENT = "Line.MDV201_HN_2_895_B52515"
112112                             2           13.193 /_ -175.5 =    -13.153 +j   -1.0293
------------
52515                              2           13.193 /_    4.5 =     13.153 +j    1.0289

ELEMENT = "Line.MDV201_98795FUSE"
846                                1          0.39336 /_  -57.5 =    0.21148 +j  -0.33167
846                                2          0.38282 /_ -176.5 =    -0.3821 +j -0.023467
846                                3          0.39491 /_   63.0 =    0.17936 +j   0.35183
------------
98795                              1          0.39339 /_  122.5 =   -0.21145 +j   0.33173
98795                              2          0.38285 /_    3.5 =    0.38214 +j  0.023394
98795                              3          0.39493 /_ -117.0 =   -0.17942 +j  -0.35182

ELEMENT = "Line.MDV201_HN_2_246_B39602"
39623                              2           6.1385 /_ -175.5 =    -6.1195 +j  -0.48163
------------
39602                              2           6.1389 /_    4.5 =     6.1201 +j   0.48043

ELEMENT = "Line.MDV201_DA_8_149_ABC56778"
56777                              1           7.2474 /_  -57.0 =     3.9507 +j   -6.0759
56777                              2           34.636 /_ -175.6 =    -34.534 +j   -2.6616
56777                              3           37.182 /_   63.9 =     16.371 +j    33.384
------------
56778                              1           7.2486 /_  123.0 =    -3.9494 +j    6.0782
56778                              2           34.637 /_    4.4 =     34.535 +j    2.6589
56778                              3           37.182 /_ -116.1 =    -16.373 +j   -33.383

ELEMENT = "Line.MDV201_HN_2_083_ABC62239"
44586                              1            85.33 /_  -56.9 =     46.602 +j   -71.481
44586                              2           48.956 /_ -175.5 =    -48.806 +j   -3.8235
44586                              3           60.281 /_   63.9 =     26.567 +j    54.111
------------
62239                              1           85.331 /_  123.1 =    -46.602 +j    71.482
62239                              2           48.956 /_    4.5 =     48.806 +j    3.8226
62239                              3           60.282 /_ -116.2 =    -26.568 +j   -54.111

ELEMENT = "Line.MDV201_DA_8_145_ABC46393"
46394                              1        0.0019397 /_   60.2 =  0.00096426 +j 0.0016831
46394                              2        0.0021625 /_  -64.6 =  0.00092608 +j -0.0019541
46394                              3        0.0019399 /_  170.4 =  -0.0019127 +j 0.00032372
------------
46393                              1      2.3294E-011 /_  -38.7 =  1.819E-011 +j -1.4552E-011
46393                              2      3.0869E-011 /_   45.0 =  2.1828E-011 +j 2.1828E-011
46393                              3      4.3656E-011 /_    0.0 =  4.3656E-011 +j         0

ELEMENT = "Line.MDV201_HN_2_729_B28246"
1144254                            2           1.3763 /_ -176.0 =    -1.3729 +j -0.095835
------------
28246                              2           1.3765 /_    4.0 =     1.3732 +j  0.095383

ELEMENT = "Line.MDV201_HN_2_954_B39771"
14996                              2           3.5648 /_ -175.6 =    -3.5545 +j  -0.27039
------------
39771                              2           3.5651 /_    4.3 =     3.5549 +j   0.26955

ELEMENT = "Line.MDV201_108776FUSE"
74432                              1           2.0665 /_  -57.6 =      1.106 +j   -1.7456
------------
108776                             1           2.0665 /_  122.4 =     -1.106 +j    1.7456

ELEMENT = "Line.HN_2P028_SW"
1160489                            1            1.652 /_  -57.9 =    0.87805 +j   -1.3993
------------
MDV201_795ELB_INT                  1            1.652 /_  122.1 =   -0.87805 +j    1.3993

ELEMENT = "Line.MDV201_795ELB"
MDV201_795ELB_INT                  1            1.652 /_  -57.9 =    0.87805 +j   -1.3993
------------
795                                1            1.652 /_  122.1 =   -0.87805 +j    1.3993

ELEMENT = "Line.MDV201_1140227FUSE"
14879                              1           2.7545 /_  -56.9 =     1.5027 +j   -2.3085
------------
1140227                            1           2.7545 /_  123.1 =    -1.5027 +j    2.3086

ELEMENT = "Line.MDV201_HN_2_488_C8103"
8099                               3            8.454 /_   63.8 =     3.7376 +j    7.5829
------------
8103                               3           8.4543 /_ -116.2 =    -3.7383 +j   -7.5828

ELEMENT = "Line.MDV201_DA_8_917_A56768"
1000983                            1            47.76 /_  -56.8 =      26.13 +j   -39.978
------------
56768                              1            47.76 /_  123.2 =     -26.13 +j    39.978

ELEMENT = "Line.MDV201_HN_2_029_ABC62262"
62265                              1           85.334 /_  -56.9 =     46.599 +j   -71.487
62265                              2           38.168 /_ -175.6 =    -38.055 +j   -2.9434
62265                              3           39.897 /_   63.9 =     17.546 +j    35.832
------------
62262                              1           85.334 /_  123.1 =    -46.598 +j    71.488
62262                              2           38.169 /_    4.4 =     38.055 +j    2.9418
62262                              3           39.898 /_ -116.1 =    -17.547 +j   -35.832

ELEMENT = "Line.MDV201_HN_2_955_B39752"
39771                              2           2.9078 /_ -175.6 =    -2.8991 +j  -0.22482
------------
39752                              2           2.9081 /_    4.4 =     2.8995 +j   0.22397

ELEMENT = "Line.MDV201_DA_8_215_B1017348"
1017350                            2           6.2916 /_ -175.3 =    -6.2707 +j  -0.51223
------------
1017348                            2           6.2923 /_    4.7 =     6.2716 +j   0.51028

ELEMENT = "Line.MDV201_DA_8_678_A56764"
56760                              1           6.1222 /_  -56.9 =     3.3438 +j   -5.1284
------------
56764                              1           6.1226 /_  123.1 =    -3.3431 +j    5.1293

ELEMENT = "Line.MDV201_HN_2_834_B39617"
39620                              2           7.5477 /_ -175.7 =    -7.5261 +j  -0.57117
------------
39617                              2           7.5481 /_    4.3 =     7.5265 +j   0.57017

ELEMENT = "Line.MDV201_HN_2_906_A39580"
39589                              1           2.1813 /_  -56.2 =     1.2122 +j   -1.8134
------------
39580                              1           2.1814 /_  123.8 =     -1.212 +j    1.8137

ELEMENT = "Line.MDV201_DA_8_734_C74440"
74446                              3           8.1655 /_   64.0 =     3.5781 +j    7.3399
------------
74440                              3           8.1658 /_ -116.0 =    -3.5787 +j   -7.3398

ELEMENT = "Line.MDV201_DA_8_157_ABC58429"
58430                              1           3.8543 /_  -56.8 =      2.111 +j   -3.2249
58430                              2           1.5697 /_ -175.3 =    -1.5644 +j  -0.12839
58430                              3           36.843 /_   63.9 =     16.236 +j    33.073
------------
58429                              1           3.8554 /_  123.2 =    -2.1098 +j    3.2268
58429                              2           1.5705 /_    4.6 =     1.5654 +j   0.12626
58429                              3           36.844 /_ -116.1 =    -16.238 +j   -33.073

ELEMENT = "Line.MDV201_HN_2_605_A21655"
28213                              1           16.147 /_  -57.3 =      8.731 +j   -13.583
------------
21655                              1           16.148 /_  122.7 =    -8.7303 +j    13.584

ELEMENT = "Line.MDV201_HN_2_636_AC28249"
63666                              1           33.744 /_  -56.8 =     18.474 +j   -28.237
63666                              3           3.8334 /_   63.7 =     1.6965 +j    3.4375
------------
28249                              1           33.744 /_  123.2 =    -18.474 +j    28.238
28249                              3           3.8341 /_ -116.3 =    -1.6979 +j   -3.4376

ELEMENT = "Line.MDV201_HN_2_705_ABC52524"
105409                             1           22.843 /_  -56.8 =     12.498 +j   -19.121
105409                             2           93.353 /_ -175.3 =    -93.034 +j   -7.7202
105409                             3           18.899 /_   63.3 =      8.483 +j    16.888
------------
52524                              1           22.844 /_  123.2 =    -12.498 +j    19.122
52524                              2           93.354 /_    4.7 =     93.034 +j    7.7191
52524                              3           18.899 /_ -116.7 =    -8.4841 +j   -16.888

ELEMENT = "Line.MDV201_DA_8_928_A39733"
74424                              1           16.624 /_  -56.8 =     9.0984 +j   -13.914
------------
39733                              1           16.625 /_  123.2 =    -9.0976 +j    13.915

ELEMENT = "Line.MDV201_HN_2_383_ABC8113"
8111                               1           21.893 /_  -57.2 =     11.859 +j   -18.403
8111                               2           1.3936 /_ -175.9 =    -1.3901 +j -0.098498
8111                               3           10.642 /_   63.5 =     4.7447 +j    9.5252
------------
8113                               1           21.893 /_  122.8 =    -11.858 +j    18.404
8113                               2           1.3942 /_    4.0 =     1.3909 +j  0.096967
8113                               3           10.642 /_ -116.5 =    -4.7462 +j    -9.525

ELEMENT = "Line.MDV201_HN_2_803_B837"
836                                2           28.247 /_ -175.6 =    -28.166 +j   -2.1435
------------
837                                2           28.248 /_    4.4 =     28.166 +j    2.1426

ELEMENT = "Line.SW-HN_2_793_SW"
1023346                            1           350.64 /_  -56.7 =      192.4 +j   -293.13
1023346                            2           378.14 /_ -175.6 =       -377 +j   -29.327
1023346                            3           343.94 /_   63.7 =     152.37 +j    308.34
------------
MDV201_796USD_INT                  1           350.64 /_  123.3 =     -192.4 +j    293.13
MDV201_796USD_INT                  2           378.14 /_    4.4 =        377 +j    29.327
MDV201_796USD_INT                  3           343.94 /_ -116.3 =    -152.37 +j   -308.34

ELEMENT = "Line.MDV201_796USD"
MDV201_796USD_INT                  1           350.64 /_  -56.7 =      192.4 +j   -293.13
MDV201_796USD_INT                  2           378.14 /_ -175.6 =       -377 +j   -29.327
MDV201_796USD_INT                  3           343.94 /_   63.7 =     152.37 +j    308.34
------------
796                                1           350.64 /_  123.3 =     -192.4 +j    293.13
796                                2           378.14 /_    4.4 =        377 +j    29.327
796                                3           343.94 /_ -116.3 =    -152.37 +j   -308.34

ELEMENT = "Line.MDV201_HN_1_332_C28263"
28262                              3           0.7211 /_   63.5 =    0.32153 +j   0.64545
------------
28263                              3           0.7214 /_ -116.5 =   -0.32235 +j  -0.64538

ELEMENT = "Line.MDV201_HN_2_890_B52521"
52519                              2           4.6981 /_ -175.6 =    -4.6844 +j  -0.35832
------------
...