omf/scratch/OpenDssDemo/example/ckt5_Power_elem_kVA.txt

CIRCUIT ELEMENT POWER FLOW

(Power Flow into element from indicated Bus)

Power Delivery Elements

  Bus                          Phase     kW     +j   kvar         kVA         PF

ELEMENT = "Vsource.SOURCE"
SOURCEBUS                          1     -2485.2 +j  -1151.4     2738.9       0.9074
SOURCEBUS                          2     -2431.5 +j  -1264.0     2740.4       0.8873
SOURCEBUS                          3     -2360.8 +j  -1161.2     2631.0       0.8973
   TERMINAL TOTAL ...................... -7277.5 +j  -3576.6     8108.9       0.8975
SOURCEBUS                          0         0.0 +j      0.0        0.0       1.0000
SOURCEBUS                          0         0.0 +j      0.0        0.0       1.0000
SOURCEBUS                          0         0.0 +j      0.0        0.0       1.0000
   TERMINAL TOTAL ......................     0.0 +j      0.0        0.0       1.0000



ELEMENT = "Line.MDV201_CONNECTOR"
_MDV_SUB_1_LSB                     1      2356.3 +j   1016.3     2566.1       0.9182
_MDV_SUB_1_LSB                     2      2563.8 +j   1030.6     2763.1       0.9278
_MDV_SUB_1_LSB                     3      2317.9 +j    982.1     2517.4       0.9208
   TERMINAL TOTAL ......................  7237.9 +j   3029.0     7846.2       0.9225
MDV201                             1     -2356.3 +j  -1016.3     2566.1       0.9182
MDV201                             2     -2563.8 +j  -1030.6     2763.1       0.9278
MDV201                             3     -2317.9 +j   -982.1     2517.4       0.9208
   TERMINAL TOTAL ...................... -7237.9 +j  -3029.0     7846.2       0.9225


ELEMENT = "Line.MDV201_HN_1_275_A94744"
94743                              1         6.0 +j      2.5        6.5       0.9262
   TERMINAL TOTAL ......................     6.0 +j      2.5        6.5       0.9262
94744                              1        -6.0 +j     -2.5        6.5       0.9256
   TERMINAL TOTAL ......................    -6.0 +j     -2.5        6.5       0.9256

ELEMENT = "Line.MDV201_HN_2_466_C62235"
62244                              3       128.2 +j     50.8      137.9       0.9298
   TERMINAL TOTAL ......................   128.2 +j     50.8      137.9       0.9298
62235                              3      -128.2 +j    -50.8      137.9       0.9298
   TERMINAL TOTAL ......................  -128.2 +j    -50.8      137.9       0.9298

ELEMENT = "Line.MDV201_DA_8_780_A1144234"
1144235                            1        16.3 +j      6.7       17.7       0.9246
   TERMINAL TOTAL ......................    16.3 +j      6.7       17.7       0.9246
1144234                            1       -16.3 +j     -6.7       17.7       0.9243
   TERMINAL TOTAL ......................   -16.3 +j     -6.7       17.7       0.9243

ELEMENT = "Line.MDV201_1160486ELB-1_SW"
39754                              2        47.3 +j     16.9       50.2       0.9415
   TERMINAL TOTAL ......................    47.3 +j     16.9       50.2       0.9415
MDV201_1160486ELB_INT              2       -47.3 +j    -16.9       50.2       0.9415
   TERMINAL TOTAL ......................   -47.3 +j    -16.9       50.2       0.9415

ELEMENT = "Line.MDV201_1160486ELB"
MDV201_1160486ELB_INT              2        47.3 +j     16.9       50.2       0.9415
   TERMINAL TOTAL ......................    47.3 +j     16.9       50.2       0.9415
1160486                            2       -47.3 +j    -16.9       50.2       0.9415
   TERMINAL TOTAL ......................   -47.3 +j    -16.9       50.2       0.9415

ELEMENT = "Line.MDV201_HN_2P009_B1160473"
1160476                            2       177.1 +j     63.4      188.1       0.9416
   TERMINAL TOTAL ......................   177.1 +j     63.4      188.1       0.9416
1160473                            2      -177.1 +j    -63.4      188.1       0.9414
   TERMINAL TOTAL ......................  -177.1 +j    -63.4      188.1       0.9414

ELEMENT = "Line.MDV201_HN_2_088_ABC8164"
8163                               1       567.2 +j    236.1      614.4       0.9232
8163                               2       387.9 +j    149.2      415.6       0.9334
8163                               3       833.9 +j    329.7      896.8       0.9300
   TERMINAL TOTAL ......................  1789.0 +j    714.9     1926.6       0.9286
8164                               1      -567.1 +j   -235.7      614.2       0.9234
8164                               2      -387.8 +j   -149.1      415.5       0.9333
8164                               3      -833.4 +j   -329.0      896.0       0.9302
   TERMINAL TOTAL ...................... -1788.3 +j   -713.9     1925.5       0.9287

ELEMENT = "Line.MDV201_HN_2_319_B39610"
103730                             2        10.2 +j      3.9       10.9       0.9348
   TERMINAL TOTAL ......................    10.2 +j      3.9       10.9       0.9348
39610                              2       -10.2 +j     -3.9       10.9       0.9348
   TERMINAL TOTAL ......................   -10.2 +j     -3.9       10.9       0.9348

ELEMENT = "Line.MDV201_HN_2_417_A842"
835                                1        81.8 +j     34.8       88.9       0.9202
   TERMINAL TOTAL ......................    81.8 +j     34.8       88.9       0.9202
842                                1       -81.8 +j    -34.8       88.9       0.9202
   TERMINAL TOTAL ......................   -81.8 +j    -34.8       88.9       0.9202



ELEMENT = "Line.MDV201_HN_2_941_B39760"
39775                              2        36.3 +j     13.1       38.6       0.9404
   TERMINAL TOTAL ......................    36.3 +j     13.1       38.6       0.9404
39760                              2       -36.3 +j    -13.1       38.6       0.9403
   TERMINAL TOTAL ......................   -36.3 +j    -13.1       38.6       0.9403

ELEMENT = "Line.MDV201_1160480ELB-1_SW"
15004                              2       133.4 +j     47.7      141.7       0.9415
   TERMINAL TOTAL ......................   133.4 +j     47.7      141.7       0.9415
MDV201_1160480ELB_INT              2      -133.4 +j    -47.7      141.7       0.9415
   TERMINAL TOTAL ......................  -133.4 +j    -47.7      141.7       0.9415

ELEMENT = "Line.MDV201_1160480ELB"
MDV201_1160480ELB_INT              2       133.4 +j     47.7      141.7       0.9415
   TERMINAL TOTAL ......................   133.4 +j     47.7      141.7       0.9415
1160480                            2      -133.4 +j    -47.7      141.7       0.9415
   TERMINAL TOTAL ......................  -133.4 +j    -47.7      141.7       0.9415

ELEMENT = "Line.C_1P034_SW"
1160492                            1        72.0 +j     29.2       77.7       0.9268
   TERMINAL TOTAL ......................    72.0 +j     29.2       77.7       0.9268
MDV201_8088ELB_INT                 1       -72.0 +j    -29.2       77.7       0.9268
   TERMINAL TOTAL ......................   -72.0 +j    -29.2       77.7       0.9268

ELEMENT = "Line.MDV201_8088ELB"
MDV201_8088ELB_INT                 1        72.0 +j     29.2       77.7       0.9268
   TERMINAL TOTAL ......................    72.0 +j     29.2       77.7       0.9268
8088                               1       -72.0 +j    -29.2       77.7       0.9268
   TERMINAL TOTAL ......................   -72.0 +j    -29.2       77.7       0.9268

ELEMENT = "Line.MDV201_HN_2_499_ABC834"
829                                1       710.8 +j    289.9      767.7       0.9260
829                                2       928.6 +j    351.9      993.1       0.9351
829                                3       672.8 +j    271.3      725.5       0.9274
   TERMINAL TOTAL ......................  2312.3 +j    913.1     2486.0       0.9301
834                                1      -710.1 +j   -289.5      766.8       0.9260
834                                2      -927.6 +j   -351.0      991.8       0.9353
834                                3      -672.5 +j   -270.9      725.0       0.9275
   TERMINAL TOTAL ...................... -2310.1 +j   -911.4     2483.4       0.9302

ELEMENT = "Line.MDV201_1160478ELB-1_SW"
15005                              2        98.4 +j     35.3      104.5       0.9414
   TERMINAL TOTAL ......................    98.4 +j     35.3      104.5       0.9414
MDV201_1160478ELB_INT              2       -98.4 +j    -35.3      104.5       0.9414
   TERMINAL TOTAL ......................   -98.4 +j    -35.3      104.5       0.9414

ELEMENT = "Line.MDV201_1160478ELB"
MDV201_1160478ELB_INT              2        98.4 +j     35.3      104.5       0.9414
   TERMINAL TOTAL ......................    98.4 +j     35.3      104.5       0.9414
1160478                            2       -98.4 +j    -35.3      104.5       0.9414
   TERMINAL TOTAL ......................   -98.4 +j    -35.3      104.5       0.9414

ELEMENT = "Line.MDV201_HN_2_217_ABC8160"
44582                              1       567.3 +j    236.6      614.7       0.9230
44582                              2       417.4 +j    160.6      447.2       0.9333
44582                              3       918.3 +j    364.5      988.0       0.9295
   TERMINAL TOTAL ......................  1903.1 +j    761.6     2049.8       0.9284
8160                               1      -567.3 +j   -236.5      614.6       0.9230
8160                               2      -417.4 +j   -160.6      447.2       0.9333
8160                               3      -918.2 +j   -364.2      987.8       0.9295
   TERMINAL TOTAL ...................... -1902.8 +j   -761.3     2049.5       0.9285

ELEMENT = "Line.MDV201_HN_2_942_C89791"
89783                              3       105.0 +j     41.0      112.8       0.9314
   TERMINAL TOTAL ......................   105.0 +j     41.0      112.8       0.9314
89791                              3      -105.0 +j    -41.0      112.8       0.9314
   TERMINAL TOTAL ......................  -105.0 +j    -41.0      112.8       0.9314

ELEMENT = "Line.MDV201_99422FUSE"
6584                               1       131.8 +j     54.0      142.4       0.9254
   TERMINAL TOTAL ......................   131.8 +j     54.0      142.4       0.9254
99422                              1      -131.8 +j    -54.0      142.4       0.9254
   TERMINAL TOTAL ......................  -131.8 +j    -54.0      142.4       0.9254

ELEMENT = "Line.MDV201_HN_2_140_ABC8124"
8113                               1       144.9 +j     61.6      157.5       0.9203
8113                               2         9.3 +j      3.6       10.0       0.9321
8113                               3        71.5 +j     29.1       77.2       0.9264
   TERMINAL TOTAL ......................   225.8 +j     94.3      244.7       0.9227
8124                               1      -144.9 +j    -61.6      157.5       0.9203
8124                               2        -9.3 +j     -3.6       10.0       0.9317
8124                               3       -71.5 +j    -29.1       77.2       0.9263
   TERMINAL TOTAL ......................  -225.7 +j    -94.3      244.6       0.9227

ELEMENT = "Line.MDV201_HN_2_818_ABC63707"
14880                              1       104.3 +j     43.7      113.1       0.9222
14880                              2       627.6 +j    233.3      669.5       0.9374
14880                              3       127.0 +j     52.0      137.2       0.9254
   TERMINAL TOTAL ......................   858.8 +j    329.0      919.7       0.9338
63707                              1      -104.2 +j    -43.8      113.1       0.9221
63707                              2      -627.4 +j   -232.9      669.2       0.9375
63707                              3      -127.0 +j    -52.0      137.2       0.9254
   TERMINAL TOTAL ......................  -858.6 +j   -328.7      919.4       0.9339

ELEMENT = "Line.MDV201_DA_8_731_C74450"
74449                              3        15.3 +j      5.9       16.4       0.9330
   TERMINAL TOTAL ......................    15.3 +j      5.9       16.4       0.9330
74450                              3       -15.3 +j     -5.9       16.4       0.9329
   TERMINAL TOTAL ......................   -15.3 +j     -5.9       16.4       0.9329

ELEMENT = "Line.MDV201_100494FUSE"
14989                              2         8.2 +j      3.1        8.7       0.9339
   TERMINAL TOTAL ......................     8.2 +j      3.1        8.7       0.9339
100494                             2        -8.2 +j     -3.1        8.7       0.9339
   TERMINAL TOTAL ......................    -8.2 +j     -3.1        8.7       0.9339

ELEMENT = "Line.MDV201_107110FUSE"
63683                              1       245.3 +j    102.6      265.9       0.9226
63683                              3       125.2 +j     50.4      134.9       0.9277
   TERMINAL TOTAL ......................   370.5 +j    153.0      400.8       0.9243
107110                             1      -245.3 +j   -102.6      265.9       0.9226
107110                             3      -125.2 +j    -50.4      134.9       0.9277
   TERMINAL TOTAL ......................  -370.5 +j   -152.9      400.8       0.9243

ELEMENT = "Line.MDV201_HN_2_477_C8121"
1144242                            3        59.8 +j     24.3       64.6       0.9264
   TERMINAL TOTAL ......................    59.8 +j     24.3       64.6       0.9264
8121                               3       -59.8 +j    -24.3       64.6       0.9264
   TERMINAL TOTAL ......................   -59.8 +j    -24.3       64.6       0.9264

ELEMENT = "Line.MDV201_HN_2_876_C63671"
63668                              3       102.1 +j     40.6      109.9       0.9291
   TERMINAL TOTAL ......................   102.1 +j     40.6      109.9       0.9291
63671                              3      -102.1 +j    -40.6      109.9       0.9291
   TERMINAL TOTAL ......................  -102.1 +j    -40.6      109.9       0.9291

ELEMENT = "Line.MDV201_HN_2_671_C89781"
89784                              3       262.7 +j    102.6      282.0       0.9315
   TERMINAL TOTAL ......................   262.7 +j    102.6      282.0       0.9315
89781                              3      -262.7 +j   -102.6      282.0       0.9315
   TERMINAL TOTAL ......................  -262.7 +j   -102.6      282.0       0.9315

ELEMENT = "Line.MDV201_DA_8_930_A39751"
39734                              1        49.7 +j     20.2       53.6       0.9263
   TERMINAL TOTAL ......................    49.7 +j     20.2       53.6       0.9263
39751                              1       -49.7 +j    -20.2       53.6       0.9263
   TERMINAL TOTAL ......................   -49.7 +j    -20.2       53.6       0.9263

ELEMENT = "Line.MDV201_HN_2_394_ABC63658"
63657                              1      1509.8 +j    629.6     1635.9       0.9230
63657                              2      2047.9 +j    788.4     2194.4       0.9332
63657                              3      1390.8 +j    569.1     1502.7       0.9255
   TERMINAL TOTAL ......................  4948.5 +j   1987.1     5332.6       0.9280
63658                              1     -1509.3 +j   -629.1     1635.1       0.9230
63658                              2     -2047.4 +j   -786.6     2193.3       0.9335
63658                              3     -1391.0 +j   -568.5     1502.7       0.9257
   TERMINAL TOTAL ...................... -4947.7 +j  -1984.1     5330.7       0.9281

ELEMENT = "Line.MDV201_DA_8_687_B74448"
74445                              2       168.9 +j     64.8      180.9       0.9335
   TERMINAL TOTAL ......................   168.9 +j     64.8      180.9       0.9335
74448                              2      -168.8 +j    -64.8      180.8       0.9335
   TERMINAL TOTAL ......................  -168.8 +j    -64.8      180.8       0.9335

ELEMENT = "Line.MDV201_1012643FUSE"
1012641                            3         4.2 +j      1.6        4.5       0.9333
   TERMINAL TOTAL ......................     4.2 +j      1.6        4.5       0.9333
1012643                            3        -4.2 +j     -1.6        4.5       0.9333
   TERMINAL TOTAL ......................    -4.2 +j     -1.6        4.5       0.9333

ELEMENT = "Line.MDV201_HN_1_238_A39569"
39570                              1        14.7 +j      6.0       15.9       0.9265
   TERMINAL TOTAL ......................    14.7 +j      6.0       15.9       0.9265
39569                              1       -14.7 +j     -6.0       15.9       0.9263
   TERMINAL TOTAL ......................   -14.7 +j     -6.0       15.9       0.9263

ELEMENT = "Line.MDV201_14869FUSE"
14858                              1       105.0 +j     43.8      113.8       0.9228
   TERMINAL TOTAL ......................   105.0 +j     43.8      113.8       0.9228
14869                              1      -105.0 +j    -43.8      113.8       0.9228
   TERMINAL TOTAL ......................  -105.0 +j    -43.8      113.8       0.9228

ELEMENT = "Line.MDV201_HN_1_156_C89790"
89796                              3        12.2 +j      4.9       13.2       0.9271
   TERMINAL TOTAL ......................    12.2 +j      4.9       13.2       0.9271
89790                              3       -12.2 +j     -5.0       13.2       0.9267
   TERMINAL TOTAL ......................   -12.2 +j     -5.0       13.2       0.9267

ELEMENT = "Line.MDV201_HN_2_318_C28272"
28271                              3        10.0 +j      4.1       10.8       0.9257
   TERMINAL TOTAL ......................    10.0 +j      4.1       10.8       0.9257
28272                              3       -10.0 +j     -4.1       10.8       0.9254
   TERMINAL TOTAL ......................   -10.0 +j     -4.1       10.8       0.9254

ELEMENT = "Line.MDV201_C_1_140_ABC69477"
69478                              1        -0.0 +j     -0.0        0.0       0.0837
69478                              2         0.6 +j      0.2        0.6       0.9404
69478                              3         0.0 +j     -0.0        0.0      -0.1078
   TERMINAL TOTAL ......................     0.6 +j      0.1        0.6       0.9761
69477                              1         0.0 +j      0.0        0.0       0.0843
69477                              2        -0.6 +j     -0.2        0.7       0.9282
69477                              3        -0.0 +j      0.0        0.0      -0.1082
   TERMINAL TOTAL ......................    -0.6 +j     -0.2        0.6       0.9480

ELEMENT = "Line.MDV201_HN_2_948_C8176"
8175                               3        20.4 +j      7.9       21.8       0.9322
   TERMINAL TOTAL ......................    20.4 +j      7.9       21.8       0.9322
8176                               3       -20.4 +j     -7.9       21.8       0.9321
   TERMINAL TOTAL ......................   -20.4 +j     -7.9       21.8       0.9321

ELEMENT = "Line.MDV201_1144230FUSE"
8184                               1        47.4 +j     19.8       51.3       0.9224
   TERMINAL TOTAL ......................    47.4 +j     19.8       51.3       0.9224
1144230                            1       -47.4 +j    -19.8       51.3       0.9224
   TERMINAL TOTAL ......................   -47.4 +j    -19.8       51.3       0.9224

ELEMENT = "Line.MDV201_HN_2_105_ABC39582"
39595                              1       161.5 +j     66.3      174.6       0.9252
39595                              2       459.4 +j    171.0      490.2       0.9372
39595                              3       233.6 +j     94.7      252.1       0.9268
   TERMINAL TOTAL ......................   854.5 +j    331.9      916.7       0.9321
39582                              1      -161.5 +j    -66.3      174.6       0.9251
39582                              2      -459.1 +j   -170.8      489.8       0.9373
39582                              3      -233.6 +j    -94.6      252.0       0.9268
   TERMINAL TOTAL ......................  -854.2 +j   -331.7      916.3       0.9322

ELEMENT = "Line.MDV201_DA_8_691_B46386"
46385                              2       102.3 +j     39.3      109.6       0.9336
   TERMINAL TOTAL ......................   102.3 +j     39.3      109.6       0.9336
46386                              2      -102.3 +j    -39.3      109.6       0.9336
   TERMINAL TOTAL ......................  -102.3 +j    -39.3      109.6       0.9336

ELEMENT = "Line.MDV201_HN_2_457_C62244"
106884                             3       135.9 +j     53.9      146.2       0.9297
   TERMINAL TOTAL ......................   135.9 +j     53.9      146.2       0.9297
62244                              3      -135.9 +j    -53.9      146.2       0.9297
   TERMINAL TOTAL ......................  -135.9 +j    -53.9      146.2       0.9297

ELEMENT = "Line.C_1P038_SW"
1160493                            1       142.6 +j     57.6      153.8       0.9272
   TERMINAL TOTAL ......................   142.6 +j     57.6      153.8       0.9272
MDV201_8075ELB_INT                 1      -142.6 +j    -57.6      153.8       0.9272
   TERMINAL TOTAL ......................  -142.6 +j    -57.6      153.8       0.9272

ELEMENT = "Line.MDV201_8075ELB"
MDV201_8075ELB_INT                 1       142.6 +j     57.6      153.8       0.9272
   TERMINAL TOTAL ......................   142.6 +j     57.6      153.8       0.9272
8075                               1      -142.6 +j    -57.6      153.8       0.9272
   TERMINAL TOTAL ......................  -142.6 +j    -57.6      153.8       0.9272

ELEMENT = "Line.C_1P032_SW"
69460                              1        20.5 +j      8.4       22.2       0.9255
   TERMINAL TOTAL ......................    20.5 +j      8.4       22.2       0.9255
MDV201_107997ELB_INT               1       -20.5 +j     -8.4       22.2       0.9255
   TERMINAL TOTAL ......................   -20.5 +j     -8.4       22.2       0.9255

ELEMENT = "Line.MDV201_107997ELB"
MDV201_107997ELB_INT               1        20.5 +j      8.4       22.2       0.9255
   TERMINAL TOTAL ......................    20.5 +j      8.4       22.2       0.9255
107997                             1       -20.5 +j     -8.4       22.2       0.9255
   TERMINAL TOTAL ......................   -20.5 +j     -8.4       22.2       0.9255

ELEMENT = "Line.MDV201_HN_2_949_C8180"
8176                               3        20.4 +j      7.9       21.8       0.9321
   TERMINAL TOTAL ......................    20.4 +j      7.9       21.8       0.9321
8180                               3       -20.4 +j     -7.9       21.8       0.9320
   TERMINAL TOTAL ......................   -20.4 +j     -7.9       21.8       0.9320

ELEMENT = "Line.MDV201_C_1P024_A8100"
1160461                            1       132.1 +j     53.2      142.4       0.9275
   TERMINAL TOTAL ......................   132.1 +j     53.2      142.4       0.9275
8100                               1      -132.0 +j    -53.4      142.4       0.9271
   TERMINAL TOTAL ......................  -132.0 +j    -53.4      142.4       0.9271

ELEMENT = "Line.MDV201_HN_2_166_C33824"
39776                              3        34.4 +j     13.8       37.1       0.9277
   TERMINAL TOTAL ......................    34.4 +j     13.8       37.1       0.9277
33824                              3       -34.4 +j    -13.8       37.1       0.9276
   TERMINAL TOTAL ......................   -34.4 +j    -13.8       37.1       0.9276

ELEMENT = "Line.MDV201_HN_2_827_A14873"
1140227                            1        18.3 +j      7.7       19.8       0.9213
   TERMINAL TOTAL ......................    18.3 +j      7.7       19.8       0.9213
14873                              1       -18.3 +j     -7.7       19.8       0.9212
   TERMINAL TOTAL ......................   -18.3 +j     -7.7       19.8       0.9212

ELEMENT = "Line.HN_2P017_SW"
1160488                            2         9.9 +j      3.8       10.6       0.9330
   TERMINAL TOTAL ......................     9.9 +j      3.8       10.6       0.9330
MDV201_62249ELB_INT                2        -9.9 +j     -3.8       10.6       0.9330
   TERMINAL TOTAL ......................    -9.9 +j     -3.8       10.6       0.9330

ELEMENT = "Line.MDV201_62249ELB"
MDV201_62249ELB_INT                2         9.9 +j      3.8       10.6       0.9330
   TERMINAL TOTAL ......................     9.9 +j      3.8       10.6       0.9330
62249                              2        -9.9 +j     -3.8       10.6       0.9330
   TERMINAL TOTAL ......................    -9.9 +j     -3.8       10.6       0.9330

ELEMENT = "Line.MDV201_HN_2_397_B63634"
107106                             2       107.2 +j     41.5      114.9       0.9326
   TERMINAL TOTAL ......................   107.2 +j     41.5      114.9       0.9326
63634                              2      -107.1 +j    -41.5      114.9       0.9326
   TERMINAL TOTAL ......................  -107.1 +j    -41.5      114.9       0.9326

ELEMENT = "Line.MDV201_C_1P037_A1160467"
1160494                            1       124.4 +j     50.2      134.1       0.9273
   TERMINAL TOTAL ......................   124.4 +j     50.2      134.1       0.9273
1160467                            1      -124.3 +j    -50.3      134.1       0.9271
   TERMINAL TOTAL ......................  -124.3 +j    -50.3      134.1       0.9271

ELEMENT = "Line.MDV201_HN_2_280_A8185"
1144230                            1         7.1 +j      3.0        7.7       0.9232
   TERMINAL TOTAL ......................     7.1 +j      3.0        7.7       0.9232
8185                               1        -7.1 +j     -3.0        7.7       0.9229
   TERMINAL TOTAL ......................    -7.1 +j     -3.0        7.7       0.9229

ELEMENT = "Line.MDV201_HN_2_794_ABC791"
796                                1      2355.1 +j   1013.8     2564.0       0.9185
796                                2      2562.7 +j   1027.5     2761.0       0.9282
796                                3      2317.4 +j    979.6     2515.9       0.9211
   TERMINAL TOTAL ......................  7235.1 +j   3020.9     7840.5       0.9228
791                                1     -2353.8 +j  -1010.9     2561.7       0.9188
791                                2     -2561.6 +j  -1024.1     2758.7       0.9286
791                                3     -2317.1 +j   -976.7     2514.5       0.9215
   TERMINAL TOTAL ...................... -7232.5 +j  -3011.7     7834.5       0.9232

ELEMENT = "Line.MDV201_HN_2_677_C62303"
62306                              3        35.8 +j     14.0       38.4       0.9310
   TERMINAL TOTAL ......................    35.8 +j     14.0       38.4       0.9310
62303                              3       -35.8 +j    -14.0       38.4       0.9310
   TERMINAL TOTAL ......................   -35.8 +j    -14.0       38.4       0.9310

ELEMENT = "Line.MDV201_100478FUSE"
14839                              3         5.2 +j      2.2        5.6       0.9196
   TERMINAL TOTAL ......................     5.2 +j      2.2        5.6       0.9196
100478                             3        -5.2 +j     -2.2        5.6       0.9196
   TERMINAL TOTAL ......................    -5.2 +j     -2.2        5.6       0.9196

ELEMENT = "Line.MDV201_HN_2_115_ABC58446"
58441                              1        38.2 +j     15.9       41.4       0.9228
58441                              2        21.6 +j      8.2       23.1       0.9352
58441                              3       150.0 +j     60.5      161.8       0.9273
   TERMINAL TOTAL ......................   209.8 +j     84.7      226.3       0.9273
58446                              1       -38.2 +j    -16.0       41.4       0.9228
58446                              2       -21.6 +j     -8.2       23.1       0.9351
58446                              3      -150.0 +j    -60.5      161.7       0.9273
   TERMINAL TOTAL ......................  -209.8 +j    -84.7      226.3       0.9273

ELEMENT = "Line.MDV201_HN_2_895_B52515"
112112                             2        87.6 +j     32.4       93.4       0.9377
   TERMINAL TOTAL ......................    87.6 +j     32.4       93.4       0.9377
52515                              2       -87.6 +j    -32.4       93.4       0.9377
   TERMINAL TOTAL ......................   -87.6 +j    -32.4       93.4       0.9377

ELEMENT = "Line.MDV201_98795FUSE"
846                                1         2.6 +j      1.1        2.8       0.9185
846                                2         2.6 +j      1.0        2.8       0.9291
846                                3         2.6 +j      1.1        2.9       0.9228
   TERMINAL TOTAL ......................     7.8 +j      3.2        8.4       0.9235
98795                              1        -2.6 +j     -1.1        2.8       0.9185
98795                              2        -2.6 +j     -1.0        2.8       0.9290
98795                              3        -2.6 +j     -1.1        2.9       0.9228
   TERMINAL TOTAL ......................    -7.8 +j     -3.2        8.4       0.9234

ELEMENT = "Line.MDV201_HN_2_246_B39602"
39623                              2        41.0 +j     15.3       43.7       0.9368
   TERMINAL TOTAL ......................    41.0 +j     15.3       43.7       0.9368
39602                              2       -41.0 +j    -15.3       43.7       0.9368
   TERMINAL TOTAL ......................   -41.0 +j    -15.3       43.7       0.9368

ELEMENT = "Line.MDV201_DA_8_149_ABC56778"
56777                              1        47.9 +j     19.7       51.8       0.9251
56777                              2       232.2 +j     89.1      248.8       0.9336
56777                              3       247.6 +j     97.1      265.9       0.9309
   TERMINAL TOTAL ......................   527.7 +j    205.9      566.4       0.9316
56778                              1       -47.9 +j    -19.7       51.8       0.9250
56778                              2      -232.2 +j    -89.1      248.7       0.9336
56778                              3      -247.5 +j    -97.0      265.9       0.9310
   TERMINAL TOTAL ......................  -527.6 +j   -205.8      566.3       0.9316

ELEMENT = "Line.MDV201_HN_2_083_ABC62239"
44586                              1       566.9 +j    234.9      613.7       0.9238
44586                              2       328.5 +j    126.4      351.9       0.9333
...